data_bcu-h-D_O-Feoct
_audit_creation_date              2021-11-06
_audit_creation_method            'Materials Studio'
_symmetry_space_group_name_H-M    'P1'
_symmetry_Int_Tables_number       1
_symmetry_cell_setting            triclinic
loop_
_symmetry_equiv_pos_as_xyz
  x,y,z
_cell_length_a                    25.1640
_cell_length_b                    25.1639
_cell_length_c                    25.2115
_cell_angle_alpha                 90.0000
_cell_angle_beta                  90.0000
_cell_angle_gamma                 90.0000
loop_
_atom_site_label
_atom_site_type_symbol
_atom_site_fract_x
_atom_site_fract_y
_atom_site_fract_z
_atom_site_U_iso_or_equiv
_atom_site_adp_type
_atom_site_occupancy
Fe1    Fe    0.60054   0.01370   0.11199   0.00000  Uiso   1.00
Fe2    Fe    0.48630   0.60053   0.61199   0.00000  Uiso   1.00
Fe3    Fe    0.89948   0.48629   0.11199   0.00000  Uiso   1.00
Fe4    Fe    0.01371   0.89947   0.61199   0.00000  Uiso   1.00
Fe5    Fe    0.10054   0.98629   0.88801   0.00000  Uiso   1.00
Fe6    Fe    0.51371   0.10053   0.38801   0.00000  Uiso   1.00
Fe7    Fe    0.39948   0.51370   0.88801   0.00000  Uiso   1.00
Fe8    Fe    0.98630   0.39947   0.38801   0.00000  Uiso   1.00
Fe9    Fe    0.39948   0.98629   0.88801   0.00000  Uiso   1.00
Fe10   Fe    0.51371   0.39947   0.38801   0.00000  Uiso   1.00
Fe11   Fe    0.10054   0.51370   0.88801   0.00000  Uiso   1.00
Fe12   Fe    0.98630   0.10053   0.38801   0.00000  Uiso   1.00
Fe13   Fe    0.89948   0.01370   0.11199   0.00000  Uiso   1.00
Fe14   Fe    0.48630   0.89947   0.61199   0.00000  Uiso   1.00
Fe15   Fe    0.60054   0.48629   0.11199   0.00000  Uiso   1.00
Fe16   Fe    0.01371   0.60053   0.61199   0.00000  Uiso   1.00
C1     C     0.51652   0.94730   0.99166   0.00000  Uiso   1.00
C2     C     0.54012   0.97818   0.03135   0.00000  Uiso   1.00
C3     C     0.52372   0.03052   0.03963   0.00000  Uiso   1.00
C4     C     0.48349   0.05269   0.00834   0.00000  Uiso   1.00
C5     C     0.45989   0.02181   0.96865   0.00000  Uiso   1.00
C6     C     0.47630   0.96947   0.96037   0.00000  Uiso   1.00
H1     H     0.52924   0.90671   0.98523   0.00000  Uiso   1.00
O1     O     0.58014   0.95794   0.06340   0.00000  Uiso   1.00
O2     O     0.54831   0.05958   0.07944   0.00000  Uiso   1.00
H2     H     0.47078   0.09329   0.01477   0.00000  Uiso   1.00
O3     O     0.41988   0.04205   0.93660   0.00000  Uiso   1.00
O4     O     0.45171   0.94042   0.92056   0.00000  Uiso   1.00
C7     C     0.55271   0.51651   0.49166   0.00000  Uiso   1.00
C8     C     0.53053   0.47629   0.46037   0.00000  Uiso   1.00
C9     C     0.47819   0.45988   0.46865   0.00000  Uiso   1.00
C10    C     0.44731   0.48348   0.50834   0.00000  Uiso   1.00
C11    C     0.46948   0.52371   0.53963   0.00000  Uiso   1.00
C12    C     0.52183   0.54011   0.53135   0.00000  Uiso   1.00
H3     H     0.59330   0.52922   0.48523   0.00000  Uiso   1.00
O5     O     0.55959   0.45170   0.42056   0.00000  Uiso   1.00
O6     O     0.45796   0.41987   0.43659   0.00000  Uiso   1.00
H4     H     0.40672   0.47077   0.51477   0.00000  Uiso   1.00
O7     O     0.44043   0.54830   0.57944   0.00000  Uiso   1.00
O8     O     0.54206   0.58013   0.56340   0.00000  Uiso   1.00
C13    C     0.01652   0.44730   0.00834   0.00000  Uiso   1.00
C14    C     0.97630   0.46947   0.03963   0.00000  Uiso   1.00
C15    C     0.95989   0.52181   0.03135   0.00000  Uiso   1.00
C16    C     0.98349   0.55270   0.99166   0.00000  Uiso   1.00
C17    C     0.02372   0.53052   0.96037   0.00000  Uiso   1.00
C18    C     0.04012   0.47818   0.96865   0.00000  Uiso   1.00
H5     H     0.02924   0.40671   0.01477   0.00000  Uiso   1.00
O9     O     0.95171   0.44042   0.07944   0.00000  Uiso   1.00
O10    O     0.91988   0.54205   0.06340   0.00000  Uiso   1.00
H6     H     0.97078   0.59329   0.98523   0.00000  Uiso   1.00
O11    O     0.04831   0.55958   0.92056   0.00000  Uiso   1.00
O12    O     0.08014   0.45794   0.93660   0.00000  Uiso   1.00
C19    C     0.05271   0.01651   0.50834   0.00000  Uiso   1.00
C20    C     0.02183   0.04011   0.46865   0.00000  Uiso   1.00
C21    C     0.96948   0.02371   0.46037   0.00000  Uiso   1.00
C22    C     0.94731   0.98348   0.49166   0.00000  Uiso   1.00
C23    C     0.97819   0.95988   0.53135   0.00000  Uiso   1.00
C24    C     0.03053   0.97629   0.53963   0.00000  Uiso   1.00
H7     H     0.09330   0.02923   0.51477   0.00000  Uiso   1.00
O13    O     0.04206   0.08013   0.43660   0.00000  Uiso   1.00
O14    O     0.94043   0.04830   0.42056   0.00000  Uiso   1.00
H8     H     0.90672   0.97077   0.48523   0.00000  Uiso   1.00
O15    O     0.95796   0.91987   0.56341   0.00000  Uiso   1.00
O16    O     0.05959   0.95170   0.57944   0.00000  Uiso   1.00
C25    C     0.98349   0.94730   0.99166   0.00000  Uiso   1.00
C26    C     0.95989   0.97818   0.03135   0.00000  Uiso   1.00
C27    C     0.97630   0.03052   0.03963   0.00000  Uiso   1.00
C28    C     0.01652   0.05270   0.00834   0.00000  Uiso   1.00
C29    C     0.04012   0.02181   0.96865   0.00000  Uiso   1.00
C30    C     0.02372   0.96947   0.96037   0.00000  Uiso   1.00
H9     H     0.97078   0.90671   0.98523   0.00000  Uiso   1.00
O17    O     0.91988   0.95794   0.06340   0.00000  Uiso   1.00
O18    O     0.95171   0.05958   0.07944   0.00000  Uiso   1.00
H10    H     0.02924   0.09329   0.01477   0.00000  Uiso   1.00
O19    O     0.08014   0.04205   0.93660   0.00000  Uiso   1.00
O20    O     0.04831   0.94042   0.92056   0.00000  Uiso   1.00
C31    C     0.44731   0.01651   0.50834   0.00000  Uiso   1.00
C32    C     0.47819   0.04011   0.46865   0.00000  Uiso   1.00
C33    C     0.53053   0.02371   0.46037   0.00000  Uiso   1.00
C34    C     0.55271   0.98348   0.49166   0.00000  Uiso   1.00
C35    C     0.52183   0.95988   0.53135   0.00000  Uiso   1.00
C36    C     0.46948   0.97629   0.53963   0.00000  Uiso   1.00
H11    H     0.40672   0.02922   0.51477   0.00000  Uiso   1.00
O21    O     0.45796   0.08013   0.43660   0.00000  Uiso   1.00
O22    O     0.55959   0.04830   0.42056   0.00000  Uiso   1.00
H12    H     0.59330   0.97077   0.48523   0.00000  Uiso   1.00
O23    O     0.54206   0.91987   0.56340   0.00000  Uiso   1.00
O24    O     0.44043   0.95170   0.57944   0.00000  Uiso   1.00
C37    C     0.48349   0.44730   0.00834   0.00000  Uiso   1.00
C38    C     0.45989   0.47818   0.96865   0.00000  Uiso   1.00
C39    C     0.47630   0.53052   0.96037   0.00000  Uiso   1.00
C40    C     0.51652   0.55269   0.99166   0.00000  Uiso   1.00
C41    C     0.54012   0.52181   0.03135   0.00000  Uiso   1.00
C42    C     0.52372   0.46947   0.03963   0.00000  Uiso   1.00
H13    H     0.47078   0.40671   0.01477   0.00000  Uiso   1.00
O25    O     0.41988   0.45794   0.93660   0.00000  Uiso   1.00
O26    O     0.45171   0.55958   0.92056   0.00000  Uiso   1.00
H14    H     0.52924   0.59329   0.98523   0.00000  Uiso   1.00
O27    O     0.58014   0.54205   0.06340   0.00000  Uiso   1.00
O28    O     0.54831   0.44042   0.07944   0.00000  Uiso   1.00
C43    C     0.94731   0.51651   0.49166   0.00000  Uiso   1.00
C44    C     0.96948   0.47629   0.46037   0.00000  Uiso   1.00
C45    C     0.02183   0.45988   0.46865   0.00000  Uiso   1.00
C46    C     0.05271   0.48348   0.50834   0.00000  Uiso   1.00
C47    C     0.03053   0.52371   0.53963   0.00000  Uiso   1.00
C48    C     0.97819   0.54011   0.53135   0.00000  Uiso   1.00
H15    H     0.90672   0.52923   0.48523   0.00000  Uiso   1.00
O29    O     0.94043   0.45170   0.42056   0.00000  Uiso   1.00
O30    O     0.04206   0.41987   0.43660   0.00000  Uiso   1.00
H16    H     0.09330   0.47077   0.51477   0.00000  Uiso   1.00
O31    O     0.05959   0.54830   0.57944   0.00000  Uiso   1.00
O32    O     0.95796   0.58013   0.56340   0.00000  Uiso   1.00
C49    C     0.51726   1.01725   0.25000   0.00000  Uiso   1.00
C50    C     0.52323   0.05110   0.29370   0.00000  Uiso   1.00
C51    C     0.56336   0.08939   0.29415   0.00000  Uiso   1.00
C52    C     0.59625   0.09624   0.25000   0.00000  Uiso   1.00
C53    C     0.58940   0.06335   0.20585   0.00000  Uiso   1.00
C54    C     0.55111   0.02322   0.20630   0.00000  Uiso   1.00
H17    H     0.48684   0.98683   0.25000   0.00000  Uiso   1.00
O33    O     0.48993   0.04774   0.33750   0.00000  Uiso   1.00
O34    O     0.56949   0.12031   0.33924   0.00000  Uiso   1.00
H18    H     0.62667   0.12666   0.25000   0.00000  Uiso   1.00
O35    O     0.62032   0.06948   0.16076   0.00000  Uiso   1.00
O36    O     0.54775   0.98992   0.16249   0.00000  Uiso   1.00
C55    C     0.40377   0.59624   0.75000   0.00000  Uiso   1.00
C56    C     0.43665   0.58939   0.70584   0.00000  Uiso   1.00
C57    C     0.47678   0.55110   0.70630   0.00000  Uiso   1.00
C58    C     0.48276   0.51725   0.75000   0.00000  Uiso   1.00
C59    C     0.44890   0.52322   0.79370   0.00000  Uiso   1.00
C60    C     0.41061   0.56335   0.79415   0.00000  Uiso   1.00
H19    H     0.37335   0.62666   0.75000   0.00000  Uiso   1.00
O37    O     0.43052   0.62031   0.66076   0.00000  Uiso   1.00
O38    O     0.51008   0.54774   0.66249   0.00000  Uiso   1.00
H20    H     0.51317   0.48683   0.75000   0.00000  Uiso   1.00
O39    O     0.45226   0.48992   0.83750   0.00000  Uiso   1.00
O40    O     0.37970   0.56948   0.83924   0.00000  Uiso   1.00
C61    C    -0.01724   0.48274   0.25000   0.00000  Uiso   1.00
C62    C     0.94890   0.47677   0.20630   0.00000  Uiso   1.00
C63    C     0.91061   0.43664   0.20585   0.00000  Uiso   1.00
C64    C     0.90377   0.40376   0.25000   0.00000  Uiso   1.00
C65    C     0.93665   0.41060   0.29415   0.00000  Uiso   1.00
C66    C     0.97678   0.44889   0.29370   0.00000  Uiso   1.00
H21    H     0.01317   0.51316   0.25000   0.00000  Uiso   1.00
O41    O     0.95226   0.51007   0.16249   0.00000  Uiso   1.00
O42    O     0.87970   0.43051   0.16076   0.00000  Uiso   1.00
H22    H     0.87335   0.37333   0.25000   0.00000  Uiso   1.00
O43    O     0.93052   0.37968   0.33924   0.00000  Uiso   1.00
O44    O     0.01008   0.45225   0.33750   0.00000  Uiso   1.00
C67    C     0.09625   0.90376   0.75000   0.00000  Uiso   1.00
C68    C     0.08940   0.93664   0.79416   0.00000  Uiso   1.00
C69    C     0.05111   0.97677   0.79370   0.00000  Uiso   1.00
C70    C     1.01726   0.98274   0.75000   0.00000  Uiso   1.00
C71    C     0.02323   0.94889   0.70630   0.00000  Uiso   1.00
C72    C     0.06336   0.91060   0.70585   0.00000  Uiso   1.00
H23    H     0.12667   0.87333   0.75000   0.00000  Uiso   1.00
O45    O     0.12032   0.93051   0.83924   0.00000  Uiso   1.00
O46    O     0.04775   0.01007   0.83751   0.00000  Uiso   1.00
H24    H     0.98684   0.01316   0.75000   0.00000  Uiso   1.00
O47    O     0.98993   0.95225   0.66250   0.00000  Uiso   1.00
O48    O     0.06949   0.87968   0.66076   0.00000  Uiso   1.00
C73    C     0.40377   0.90375   0.75000   0.00000  Uiso   1.00
C74    C     0.43665   0.91060   0.70585   0.00000  Uiso   1.00
C75    C     0.47678   0.94889   0.70630   0.00000  Uiso   1.00
C76    C     0.48276  -0.01726   0.75000   0.00000  Uiso   1.00
C77    C     0.44890   0.97677   0.79370   0.00000  Uiso   1.00
C78    C     0.41061   0.93664   0.79415   0.00000  Uiso   1.00
H25    H     0.37335   0.87333   0.75000   0.00000  Uiso   1.00
O49    O     0.43052   0.87968   0.66076   0.00000  Uiso   1.00
O50    O     0.51008   0.95225   0.66249   0.00000  Uiso   1.00
H26    H     0.51317   0.01316   0.75000   0.00000  Uiso   1.00
O51    O     0.45226   0.01007   0.83751   0.00000  Uiso   1.00
O52    O     0.37970   0.93051   0.83924   0.00000  Uiso   1.00
C79    C     0.59625   0.40375   0.25000   0.00000  Uiso   1.00
C80    C     0.56336   0.41060   0.29415   0.00000  Uiso   1.00
C81    C     0.52323   0.44889   0.29370   0.00000  Uiso   1.00
C82    C     0.51726   0.48274   0.25000   0.00000  Uiso   1.00
C83    C     0.55111   0.47677   0.20630   0.00000  Uiso   1.00
C84    C     0.58940   0.43664   0.20584   0.00000  Uiso   1.00
H27    H     0.62667   0.37333   0.25000   0.00000  Uiso   1.00
O53    O     0.56949   0.37968   0.33924   0.00000  Uiso   1.00
O54    O     0.48993   0.45225   0.33750   0.00000  Uiso   1.00
H28    H     0.48684   0.51316   0.25000   0.00000  Uiso   1.00
O55    O     0.54775   0.51007   0.16249   0.00000  Uiso   1.00
O56    O     0.62032   0.43051   0.16076   0.00000  Uiso   1.00
C85    C     1.01726   0.51725   0.75000   0.00000  Uiso   1.00
C86    C     0.02323   0.55110   0.70630   0.00000  Uiso   1.00
C87    C     0.06336   0.58939   0.70585   0.00000  Uiso   1.00
C88    C     0.09625   0.59624   0.75000   0.00000  Uiso   1.00
C89    C     0.08940   0.56335   0.79415   0.00000  Uiso   1.00
C90    C     0.05111   0.52322   0.79370   0.00000  Uiso   1.00
H29    H     0.98684   0.48683   0.75000   0.00000  Uiso   1.00
O57    O     0.98993   0.54774   0.66249   0.00000  Uiso   1.00
O58    O     0.06949   0.62031   0.66076   0.00000  Uiso   1.00
H30    H     0.12667   0.62666   0.75000   0.00000  Uiso   1.00
O59    O     0.12032   0.56948   0.83924   0.00000  Uiso   1.00
O60    O     0.04775   0.48992   0.83750   0.00000  Uiso   1.00
C91    C     0.90377   0.09624   0.25000   0.00000  Uiso   1.00
C92    C     0.93665   0.08939   0.29416   0.00000  Uiso   1.00
C93    C     0.97678   0.05110   0.29370   0.00000  Uiso   1.00
C94    C     0.98276   1.01725   0.25000   0.00000  Uiso   1.00
C95    C     0.94890   0.02322   0.20630   0.00000  Uiso   1.00
C96    C     0.91061   0.06335   0.20585   0.00000  Uiso   1.00
H31    H     0.87335   0.12666   0.25000   0.00000  Uiso   1.00
O61    O     0.93052   0.12031   0.33924   0.00000  Uiso   1.00
O62    O     0.01008   0.04774   0.33751   0.00000  Uiso   1.00
H32    H     0.01317   0.98683   0.25000   0.00000  Uiso   1.00
O63    O     0.95226   0.98992   0.16250   0.00000  Uiso   1.00
O64    O     0.87970   0.06948   0.16076   0.00000  Uiso   1.00
C97    C     0.75001   0.03581   0.05795   0.00000  Uiso   1.00
C98    C     0.70210   0.01822   0.07984   0.00000  Uiso   1.00
C99    C     0.70201   0.98205   0.12185   0.00000  Uiso   1.00
C100   C     0.75001   0.96299   0.14257   0.00000  Uiso   1.00
C101   C     0.79800   0.98205   0.12185   0.00000  Uiso   1.00
C102   C     0.79792   0.01822   0.07984   0.00000  Uiso   1.00
H33    H     0.75001   0.06448   0.02594   0.00000  Uiso   1.00
O65    O     0.65372   0.03806   0.06246   0.00000  Uiso   1.00
O66    O     0.65340   0.96788   0.14377   0.00000  Uiso   1.00
H34    H     0.75001   0.93560   0.17568   0.00000  Uiso   1.00
O67    O     0.84662   0.96788   0.14377   0.00000  Uiso   1.00
O68    O     0.84630   0.03806   0.06246   0.00000  Uiso   1.00
C103   C     0.46420   0.75000   0.55795   0.00000  Uiso   1.00
C104   C     0.48178   0.70209   0.57984   0.00000  Uiso   1.00
C105   C     0.51796   0.70200   0.62185   0.00000  Uiso   1.00
C106   C     0.53701   0.75000   0.64257   0.00000  Uiso   1.00
C107   C     0.51796   0.79799   0.62185   0.00000  Uiso   1.00
C108   C     0.48178   0.79791   0.57984   0.00000  Uiso   1.00
H35    H     0.43552   0.75000   0.52594   0.00000  Uiso   1.00
O69    O     0.46195   0.65371   0.56246   0.00000  Uiso   1.00
O70    O     0.53212   0.65339   0.64377   0.00000  Uiso   1.00
H36    H     0.56440   0.75000   0.67568   0.00000  Uiso   1.00
O71    O     0.53212   0.84661   0.64377   0.00000  Uiso   1.00
O72    O     0.46195   0.84628   0.56246   0.00000  Uiso   1.00
C109   C     0.75001   0.53700   0.14257   0.00000  Uiso   1.00
C110   C     0.70201   0.51794   0.12185   0.00000  Uiso   1.00
C111   C     0.70210   0.48177   0.07984   0.00000  Uiso   1.00
C112   C     0.75001   0.46419   0.05794   0.00000  Uiso   1.00
C113   C     0.79792   0.48177   0.07984   0.00000  Uiso   1.00
C114   C     0.79800   0.51794   0.12185   0.00000  Uiso   1.00
H37    H     0.75001   0.56439   0.17568   0.00000  Uiso   1.00
O73    O     0.65340   0.53211   0.14377   0.00000  Uiso   1.00
O74    O     0.65372   0.46193   0.06246   0.00000  Uiso   1.00
H38    H     0.75001   0.43551   0.02594   0.00000  Uiso   1.00
O75    O     0.84629   0.46193   0.06246   0.00000  Uiso   1.00
O76    O     0.84662   0.53211   0.14377   0.00000  Uiso   1.00
C115   C     0.96301   0.75000   0.64257   0.00000  Uiso   1.00
C116   C     0.98206   0.79799   0.62185   0.00000  Uiso   1.00
C117   C     0.01823   0.79791   0.57984   0.00000  Uiso   1.00
C118   C     0.03582   0.75000   0.55795   0.00000  Uiso   1.00
C119   C     0.01823   0.70209   0.57984   0.00000  Uiso   1.00
C120   C     0.98206   0.70200   0.62185   0.00000  Uiso   1.00
H39    H     0.93562   0.75000   0.67568   0.00000  Uiso   1.00
O77    O     0.96789   0.84661   0.64378   0.00000  Uiso   1.00
O78    O     0.03807   0.84628   0.56246   0.00000  Uiso   1.00
H40    H     0.06450   0.75000   0.52594   0.00000  Uiso   1.00
O79    O     0.03807   0.65371   0.56246   0.00000  Uiso   1.00
O80    O     0.96789   0.65339   0.64377   0.00000  Uiso   1.00
C121   C     0.25001   0.96419   0.94206   0.00000  Uiso   1.00
C122   C     0.29792   0.98177   0.92016   0.00000  Uiso   1.00
C123   C     0.29800   0.01794   0.87815   0.00000  Uiso   1.00
C124   C     0.25001   0.03700   0.85743   0.00000  Uiso   1.00
C125   C     0.20201   0.01794   0.87815   0.00000  Uiso   1.00
C126   C     0.20210   0.98177   0.92016   0.00000  Uiso   1.00
H41    H     0.25001   0.93551   0.97406   0.00000  Uiso   1.00
O81    O     0.34630   0.96193   0.93754   0.00000  Uiso   1.00
O82    O     0.34662   0.03211   0.85623   0.00000  Uiso   1.00
H42    H     0.25001   0.06439   0.82432   0.00000  Uiso   1.00
O83    O     0.15340   0.03211   0.85623   0.00000  Uiso   1.00
O84    O     0.15372   0.96193   0.93754   0.00000  Uiso   1.00
C127   C     0.46301   0.25000   0.35743   0.00000  Uiso   1.00
C128   C     0.48206   0.20200   0.37815   0.00000  Uiso   1.00
C129   C     0.51823   0.20209   0.42016   0.00000  Uiso   1.00
C130   C     0.53582   0.25000   0.44205   0.00000  Uiso   1.00
C131   C     0.51823   0.29791   0.42016   0.00000  Uiso   1.00
C132   C     0.48206   0.29799   0.37815   0.00000  Uiso   1.00
H43    H     0.43562   0.25000   0.32432   0.00000  Uiso   1.00
O85    O     0.46789   0.15339   0.35623   0.00000  Uiso   1.00
O86    O     0.53807   0.15371   0.43754   0.00000  Uiso   1.00
H44    H     0.56450   0.25000   0.47406   0.00000  Uiso   1.00
O87    O     0.53807   0.34628   0.43754   0.00000  Uiso   1.00
O88    O     0.46789   0.34661   0.35622   0.00000  Uiso   1.00
C133   C     0.25001   0.46299   0.85743   0.00000  Uiso   1.00
C134   C     0.29800   0.48205   0.87815   0.00000  Uiso   1.00
C135   C     0.29792   0.51822   0.92016   0.00000  Uiso   1.00
C136   C     0.25001   0.53581   0.94205   0.00000  Uiso   1.00
C137   C     0.20210   0.51822   0.92016   0.00000  Uiso   1.00
C138   C     0.20201   0.48205   0.87815   0.00000  Uiso   1.00
H45    H     0.25001   0.43560   0.82432   0.00000  Uiso   1.00
O89    O     0.34662   0.46788   0.85623   0.00000  Uiso   1.00
O90    O     0.34629   0.53806   0.93754   0.00000  Uiso   1.00
H46    H     0.25001   0.56448   0.97406   0.00000  Uiso   1.00
O91    O     0.15372   0.53806   0.93754   0.00000  Uiso   1.00
O92    O     0.15340   0.46788   0.85623   0.00000  Uiso   1.00
C139   C     0.96420   0.25000   0.44205   0.00000  Uiso   1.00
C140   C     0.98178   0.29791   0.42016   0.00000  Uiso   1.00
C141   C     0.01795   0.29799   0.37815   0.00000  Uiso   1.00
C142   C     0.03701   0.25000   0.35743   0.00000  Uiso   1.00
C143   C     0.01796   0.20200   0.37815   0.00000  Uiso   1.00
C144   C     0.98178   0.20209   0.42016   0.00000  Uiso   1.00
H47    H     0.93552   0.25000   0.47406   0.00000  Uiso   1.00
O93    O     0.96195   0.34628   0.43754   0.00000  Uiso   1.00
O94    O     0.03212   0.34661   0.35623   0.00000  Uiso   1.00
H48    H     0.06440   0.25000   0.32432   0.00000  Uiso   1.00
O95    O     0.03212   0.15339   0.35623   0.00000  Uiso   1.00
O96    O     0.96195   0.15371   0.43754   0.00000  Uiso   1.00
loop_
_geom_bond_atom_site_label_1
_geom_bond_atom_site_label_2
_geom_bond_distance
_geom_bond_site_symmetry_2
_ccdc_geom_bond_type
Fe1    O1      1.932   1_545 S
Fe1    O2      1.932   .     S
Fe1    O35     1.931   .     S
Fe1    O36     1.935   1_545 S
Fe1    O65     1.930   .     S
Fe1    O66     1.934   1_545 S
Fe2    O7      1.932   .     S
Fe2    O37     1.931   .     S
Fe2    O38     1.935   .     S
Fe2    O69     1.930   .     S
Fe2    O70     1.934   .     S
Fe2    O8      1.932   .     S
Fe3    O9      1.932   .     S
Fe3    O41     1.935   .     S
Fe3    O42     1.931   .     S
Fe3    O75     1.930   .     S
Fe3    O76     1.934   .     S
Fe3    O10     1.932   .     S
Fe4    O15     1.932   1_455 S
Fe4    O16     1.932   .     S
Fe4    O47     1.935   1_455 S
Fe4    O48     1.931   .     S
Fe4    O77     1.934   1_455 S
Fe4    O78     1.930   .     S
Fe5    O19     1.932   1_565 S
Fe5    O20     1.932   .     S
Fe5    O45     1.931   .     S
Fe5    O46     1.935   1_565 S
Fe5    O83     1.934   1_565 S
Fe5    O84     1.930   .     S
Fe6    O22     1.932   .     S
Fe6    O33     1.935   .     S
Fe6    O34     1.931   .     S
Fe6    O85     1.934   .     S
Fe6    O86     1.930   .     S
Fe6    O21     1.932   .     S
Fe7    O26     1.932   .     S
Fe7    O39     1.935   .     S
Fe7    O40     1.931   .     S
Fe7    O89     1.934   .     S
Fe7    O90     1.930   .     S
Fe7    O25     1.932   .     S
Fe8    O29     1.932   .     S
Fe8    O30     1.932   1_655 S
Fe8    O43     1.931   .     S
Fe8    O44     1.935   1_655 S
Fe8    O93     1.930   .     S
Fe8    O94     1.934   1_655 S
Fe9    O3      1.932   1_565 S
Fe9    O4      1.932   .     S
Fe9    O51     1.935   1_565 S
Fe9    O52     1.931   .     S
Fe9    O81     1.930   .     S
Fe9    O82     1.934   1_565 S
Fe10   O5      1.932   .     S
Fe10   O53     1.931   .     S
Fe10   O54     1.935   .     S
Fe10   O87     1.930   .     S
Fe10   O88     1.934   .     S
Fe10   O6      1.932   .     S
Fe11   O11     1.932   .     S
Fe11   O59     1.931   .     S
Fe11   O60     1.935   .     S
Fe11   O91     1.930   .     S
Fe11   O92     1.934   .     S
Fe11   O12     1.932   .     S
Fe12   O13     1.932   1_655 S
Fe12   O14     1.932   .     S
Fe12   O61     1.931   .     S
Fe12   O62     1.935   1_655 S
Fe12   O95     1.934   1_655 S
Fe12   O96     1.930   .     S
Fe13   O17     1.932   1_545 S
Fe13   O18     1.932   .     S
Fe13   O63     1.935   1_545 S
Fe13   O64     1.931   .     S
Fe13   O67     1.934   1_545 S
Fe13   O68     1.930   .     S
Fe14   O24     1.932   .     S
Fe14   O49     1.931   .     S
Fe14   O50     1.935   .     S
Fe14   O71     1.934   .     S
Fe14   O72     1.930   .     S
Fe14   O23     1.932   .     S
Fe15   O28     1.932   .     S
Fe15   O55     1.935   .     S
Fe15   O56     1.931   .     S
Fe15   O73     1.934   .     S
Fe15   O74     1.930   .     S
Fe15   O27     1.932   .     S
Fe16   O31     1.932   .     S
Fe16   O32     1.932   1_455 S
Fe16   O57     1.935   1_455 S
Fe16   O58     1.931   .     S
Fe16   O79     1.930   .     S
Fe16   O80     1.934   1_455 S
C1     C2      1.399   1_556 A
C1     C6      1.399   .     A
C1     H1      1.083   .     S
C2     C1      1.399   1_554 A
C2     C3      1.396   1_565 A
C2     O1      1.388   .     S
C3     C2      1.396   1_545 A
C3     C4      1.399   .     A
C3     O2      1.387   .     S
C4     C5      1.399   1_554 A
C4     H2      1.083   .     S
C5     C4      1.399   1_556 A
C5     C6      1.396   1_545 A
C5     O3      1.388   .     S
C6     C5      1.396   1_565 A
C6     O4      1.387   .     S
O1     Fe1     1.932   1_565 S
O3     Fe9     1.932   1_545 S
C7     C8      1.399   .     A
C7     C12     1.399   .     A
C7     H3      1.083   .     S
C8     C9      1.396   .     A
C8     O5      1.387   .     S
C9     C10     1.399   .     A
C9     O6      1.388   .     S
C10    C11     1.399   .     A
C10    H4      1.083   .     S
C11    C12     1.396   .     A
C11    O7      1.387   .     S
C12    O8      1.388   .     S
C13    C14     1.399   1_455 A
C13    C18     1.399   1_554 A
C13    H5      1.083   .     S
C14    C13     1.399   1_655 A
C14    C15     1.396   .     A
C14    O9      1.387   .     S
C15    C16     1.399   1_554 A
C15    O10     1.388   .     S
C16    C15     1.399   1_556 A
C16    C17     1.399   1_655 A
C16    H6      1.083   .     S
C17    C16     1.399   1_455 A
C17    C18     1.396   .     A
C17    O11     1.387   .     S
C18    C13     1.399   1_556 A
C18    O12     1.388   .     S
C19    C20     1.399   .     A
C19    C24     1.399   1_545 A
C19    H7      1.083   .     S
C20    C21     1.396   1_455 A
C20    O13     1.388   .     S
C21    C20     1.396   1_655 A
C21    C22     1.399   1_545 A
C21    O14     1.387   .     S
C22    C21     1.399   1_565 A
C22    C23     1.399   .     A
C22    H8      1.083   .     S
C23    C24     1.396   1_655 A
C23    O15     1.388   .     S
C24    C23     1.396   1_455 A
C24    C19     1.399   1_565 A
C24    O16     1.387   .     S
O13    Fe12    1.932   1_455 S
O15    Fe4     1.932   1_655 S
C25    C26     1.399   1_556 A
C25    C30     1.399   1_655 A
C25    H9      1.083   .     S
C26    C25     1.399   1_554 A
C26    C27     1.396   1_565 A
C26    O17     1.388   .     S
C27    C26     1.396   1_545 A
C27    C28     1.399   1_655 A
C27    O18     1.387   .     S
C28    C27     1.399   1_455 A
C28    C29     1.399   1_554 A
C28    H10     1.083   .     S
C29    C28     1.399   1_556 A
C29    C30     1.396   1_545 A
C29    O19     1.388   .     S
C30    C29     1.396   1_565 A
C30    C25     1.399   1_455 A
C30    O20     1.387   .     S
O17    Fe13    1.932   1_565 S
O19    Fe5     1.932   1_545 S
C31    C32     1.399   .     A
C31    C36     1.399   1_545 A
C31    H11     1.083   .     S
C32    C33     1.396   .     A
C32    O21     1.388   .     S
C33    C34     1.399   1_545 A
C33    O22     1.387   .     S
C34    C33     1.399   1_565 A
C34    C35     1.399   .     A
C34    H12     1.083   .     S
C35    C36     1.396   .     A
C35    O23     1.388   .     S
C36    C31     1.399   1_565 A
C36    O24     1.387   .     S
C37    C38     1.399   1_554 A
C37    C42     1.399   .     A
C37    H13     1.083   .     S
C38    C37     1.399   1_556 A
C38    C39     1.396   .     A
C38    O25     1.388   .     S
C39    C40     1.399   .     A
C39    O26     1.387   .     S
C40    C41     1.399   1_556 A
C40    H14     1.083   .     S
C41    C40     1.399   1_554 A
C41    C42     1.396   .     A
C41    O27     1.388   .     S
C42    O28     1.387   .     S
C43    C44     1.399   .     A
C43    C48     1.399   .     A
C43    H15     1.083   .     S
C44    C45     1.396   1_655 A
C44    O29     1.387   .     S
C45    C44     1.396   1_455 A
C45    C46     1.399   .     A
C45    O30     1.388   .     S
C46    C47     1.399   .     A
C46    H16     1.083   .     S
C47    C48     1.396   1_455 A
C47    O31     1.387   .     S
C48    C47     1.396   1_655 A
C48    O32     1.388   .     S
O30    Fe8     1.932   1_455 S
O32    Fe16    1.932   1_655 S
C49    C50     1.401   1_565 A
C49    C54     1.401   1_565 A
C49    H17     1.082   .     S
C50    C49     1.401   1_545 A
C50    C51     1.396   .     A
C50    O33     1.389   .     S
C51    C52     1.398   .     A
C51    O34     1.386   .     S
C52    C53     1.398   .     A
C52    H18     1.083   .     S
C53    C54     1.396   .     A
C53    O35     1.386   .     S
C54    C49     1.401   1_545 A
C54    O36     1.389   1_545 S
O36    C54     1.389   1_565 S
O36    Fe1     1.935   1_565 S
C55    C56     1.398   .     A
C55    C60     1.398   .     A
C55    H19     1.083   .     S
C56    C57     1.396   .     A
C56    O37     1.386   .     S
C57    C58     1.401   .     A
C57    O38     1.389   .     S
C58    C59     1.401   .     A
C58    H20     1.082   .     S
C59    C60     1.396   .     A
C59    O39     1.389   .     S
C60    O40     1.386   .     S
C61    C62     1.401   1_455 A
C61    C66     1.401   1_455 A
C61    H21     1.082   .     S
C62    C61     1.401   1_655 A
C62    C63     1.396   .     A
C62    O41     1.389   .     S
C63    C64     1.398   .     A
C63    O42     1.386   .     S
C64    C65     1.398   .     A
C64    H22     1.083   .     S
C65    C66     1.396   .     A
C65    O43     1.386   .     S
C66    C61     1.401   1_655 A
C66    O44     1.389   1_655 S
O44    Fe8     1.935   1_455 S
O44    C66     1.389   1_455 S
C67    C68     1.398   .     A
C67    C72     1.398   .     A
C67    H23     1.083   .     S
C68    C69     1.396   .     A
C68    O45     1.386   .     S
C69    C70     1.401   1_455 A
C69    O46     1.389   1_565 S
C70    C69     1.401   1_655 A
C70    C71     1.401   1_655 A
C70    H24     1.082   1_565 S
C71    C70     1.401   1_455 A
C71    C72     1.396   .     A
C71    O47     1.389   1_455 S
C72    O48     1.386   .     S
O46    Fe5     1.935   1_545 S
O46    C69     1.389   1_545 S
H24    C70     1.082   1_545 S
O47    Fe4     1.935   1_655 S
O47    C71     1.389   1_655 S
C73    C74     1.398   .     A
C73    C78     1.398   .     A
C73    H25     1.083   .     S
C74    C75     1.396   .     A
C74    O49     1.386   .     S
C75    C76     1.401   1_565 A
C75    O50     1.389   .     S
C76    C75     1.401   1_545 A
C76    C77     1.401   1_545 A
C76    H26     1.082   .     S
C77    C76     1.401   1_565 A
C77    C78     1.396   .     A
C77    O51     1.389   1_565 S
C78    O52     1.386   .     S
O51    Fe9     1.935   1_545 S
O51    C77     1.389   1_545 S
C79    C80     1.398   .     A
C79    C84     1.398   .     A
C79    H27     1.083   .     S
C80    C81     1.396   .     A
C80    O53     1.386   .     S
C81    C82     1.401   .     A
C81    O54     1.389   .     S
C82    C83     1.401   .     A
C82    H28     1.082   .     S
C83    C84     1.396   .     A
C83    O55     1.389   .     S
C84    O56     1.386   .     S
C85    C86     1.401   1_655 A
C85    C90     1.401   1_655 A
C85    H29     1.082   .     S
C86    C85     1.401   1_455 A
C86    C87     1.396   .     A
C86    O57     1.389   1_455 S
C87    C88     1.398   .     A
C87    O58     1.386   .     S
C88    C89     1.398   .     A
C88    H30     1.083   .     S
C89    C90     1.396   .     A
C89    O59     1.386   .     S
C90    C85     1.401   1_455 A
C90    O60     1.389   .     S
O57    Fe16    1.935   1_655 S
O57    C86     1.389   1_655 S
C91    C92     1.398   .     A
C91    C96     1.398   .     A
C91    H31     1.083   .     S
C92    C93     1.396   .     A
C92    O61     1.386   .     S
C93    C94     1.401   1_545 A
C93    O62     1.389   1_655 S
C94    C93     1.401   1_565 A
C94    C95     1.401   1_565 A
C94    H32     1.082   1_655 S
C95    C94     1.401   1_545 A
C95    C96     1.396   .     A
C95    O63     1.389   1_545 S
C96    O64     1.386   .     S
O62    C93     1.389   1_455 S
O62    Fe12    1.935   1_455 S
H32    C94     1.082   1_455 S
O63    C95     1.389   1_565 S
O63    Fe13    1.935   1_565 S
C97    C98     1.398   .     A
C97    C102    1.398   .     A
C97    H33     1.083   .     S
C98    C99     1.396   1_545 A
C98    O65     1.387   .     S
C99    C98     1.396   1_565 A
C99    C100    1.401   .     A
C99    O66     1.389   .     S
C100   C101    1.401   .     A
C100   H34     1.082   .     S
C101   C102    1.396   1_565 A
C101   O67     1.389   .     S
C102   C101    1.396   1_545 A
C102   O68     1.387   .     S
O66    Fe1     1.934   1_565 S
O67    Fe13    1.934   1_565 S
C103   C104    1.398   .     A
C103   C108    1.398   .     A
C103   H35     1.083   .     S
C104   C105    1.396   .     A
C104   O69     1.387   .     S
C105   C106    1.401   .     A
C105   O70     1.389   .     S
C106   C107    1.401   .     A
C106   H36     1.082   .     S
C107   C108    1.396   .     A
C107   O71     1.389   .     S
C108   O72     1.387   .     S
C109   C110    1.401   .     A
C109   C114    1.401   .     A
C109   H37     1.082   .     S
C110   C111    1.396   .     A
C110   O73     1.389   .     S
C111   C112    1.398   .     A
C111   O74     1.387   .     S
C112   C113    1.398   .     A
C112   H38     1.083   .     S
C113   C114    1.396   .     A
C113   O75     1.387   .     S
C114   O76     1.389   .     S
C115   C116    1.401   .     A
C115   C120    1.401   .     A
C115   H39     1.082   .     S
C116   C117    1.396   1_655 A
C116   O77     1.389   .     S
C117   C116    1.396   1_455 A
C117   C118    1.398   .     A
C117   O78     1.387   .     S
C118   C119    1.398   .     A
C118   H40     1.083   .     S
C119   C120    1.396   1_455 A
C119   O79     1.387   .     S
C120   C119    1.396   1_655 A
C120   O80     1.389   .     S
O77    Fe4     1.934   1_655 S
O80    Fe16    1.934   1_655 S
C121   C122    1.398   .     A
C121   C126    1.398   .     A
C121   H41     1.083   .     S
C122   C123    1.396   1_565 A
C122   O81     1.387   .     S
C123   C122    1.396   1_545 A
C123   C124    1.401   .     A
C123   O82     1.389   .     S
C124   C125    1.401   .     A
C124   H42     1.082   .     S
C125   C126    1.396   1_545 A
C125   O83     1.389   .     S
C126   C125    1.396   1_565 A
C126   O84     1.387   .     S
O82    Fe9     1.934   1_545 S
O83    Fe5     1.934   1_545 S
C127   C128    1.401   .     A
C127   C132    1.401   .     A
C127   H43     1.082   .     S
C128   C129    1.396   .     A
C128   O85     1.389   .     S
C129   C130    1.398   .     A
C129   O86     1.387   .     S
C130   C131    1.398   .     A
C130   H44     1.083   .     S
C131   C132    1.396   .     A
C131   O87     1.387   .     S
C132   O88     1.389   .     S
C133   C134    1.401   .     A
C133   C138    1.401   .     A
C133   H45     1.082   .     S
C134   C135    1.396   .     A
C134   O89     1.389   .     S
C135   C136    1.398   .     A
C135   O90     1.387   .     S
C136   C137    1.398   .     A
C136   H46     1.083   .     S
C137   C138    1.396   .     A
C137   O91     1.387   .     S
C138   O92     1.389   .     S
C139   C140    1.398   .     A
C139   C144    1.398   .     A
C139   H47     1.083   .     S
C140   C141    1.396   1_655 A
C140   O93     1.387   .     S
C141   C140    1.396   1_455 A
C141   C142    1.401   .     A
C141   O94     1.389   .     S
C142   C143    1.401   .     A
C142   H48     1.082   .     S
C143   C144    1.396   1_455 A
C143   O95     1.389   .     S
C144   C143    1.396   1_655 A
C144   O96     1.387   .     S
O94    Fe8     1.934   1_455 S
O95    Fe12    1.934   1_455 S
