data_bpc-D_O-Feoct
_audit_creation_date              2021-11-06
_audit_creation_method            'Materials Studio'
_symmetry_space_group_name_H-M    'P1'
_symmetry_Int_Tables_number       1
_symmetry_cell_setting            triclinic
loop_
_symmetry_equiv_pos_as_xyz
  x,y,z
_cell_length_a                    13.3710
_cell_length_b                    47.3180
_cell_length_c                    25.3462
_cell_angle_alpha                 89.9757
_cell_angle_beta                  90.0738
_cell_angle_gamma                 94.0339
loop_
_atom_site_label
_atom_site_type_symbol
_atom_site_fract_x
_atom_site_fract_y
_atom_site_fract_z
_atom_site_U_iso_or_equiv
_atom_site_adp_type
_atom_site_occupancy
Fe1    Fe    0.00933   0.28713   0.01904   0.00000  Uiso   1.00
Fe2    Fe   -0.00918   0.71280   0.51902   0.00000  Uiso   1.00
Fe3    Fe   -0.00922   0.71286   0.98090   0.00000  Uiso   1.00
Fe4    Fe    0.00926   0.28718   0.48094   0.00000  Uiso   1.00
Fe5    Fe    0.50917   0.78714   0.01906   0.00000  Uiso   1.00
Fe6    Fe    0.49105   0.21285   0.51906   0.00000  Uiso   1.00
Fe7    Fe    0.49092   0.21286   0.98100   0.00000  Uiso   1.00
Fe8    Fe    0.50909   0.78718   0.48098   0.00000  Uiso   1.00
Fe9    Fe    0.03124   0.44209   0.10183   0.00000  Uiso   1.00
Fe10   Fe   -0.03126   0.55781   0.60175   0.00000  Uiso   1.00
Fe11   Fe   -0.03109   0.55790   0.89813   0.00000  Uiso   1.00
Fe12   Fe    0.03136   0.44217   0.39814   0.00000  Uiso   1.00
Fe13   Fe    0.53110   0.94210   0.10182   0.00000  Uiso   1.00
Fe14   Fe    0.46897   0.05785   0.60189   0.00000  Uiso   1.00
Fe15   Fe    0.46897   0.05791   0.89822   0.00000  Uiso   1.00
Fe16   Fe    0.53115   0.94218   0.39822   0.00000  Uiso   1.00
C1     C     0.09188   0.51363   0.01594   0.00000  Uiso   1.00
C2     C     0.03599   0.52507   0.97546   0.00000  Uiso   1.00
C3     C     0.94464   0.51156   0.95971   0.00000  Uiso   1.00
C4     C     0.90796   0.48642   0.98421   0.00000  Uiso   1.00
C5     C     0.96391   0.47498   0.02466   0.00000  Uiso   1.00
C6     C     0.05528   0.48848   0.04039   0.00000  Uiso   1.00
H1     H     0.16268   0.52411   0.02818   0.00000  Uiso   1.00
O1     O     0.06932   0.54992   0.94993   0.00000  Uiso   1.00
O2     O     0.89187   0.52373   0.91944   0.00000  Uiso   1.00
H2     H     0.83714   0.47595   0.97198   0.00000  Uiso   1.00
O3     O     0.93074   0.45008   0.05009   0.00000  Uiso   1.00
O4     O     0.10823   0.47626   0.08053   0.00000  Uiso   1.00
C7     C     0.90803   0.48640   0.51558   0.00000  Uiso   1.00
C8     C     0.94465   0.51151   0.54015   0.00000  Uiso   1.00
C9     C     0.03601   0.52504   0.52457   0.00000  Uiso   1.00
C10    C     0.09196   0.51364   0.48417   0.00000  Uiso   1.00
C11    C     0.05538   0.48850   0.45964   0.00000  Uiso   1.00
C12    C     0.96400   0.47499   0.47521   0.00000  Uiso   1.00
H3     H     0.83721   0.47590   0.52769   0.00000  Uiso   1.00
O5     O     0.89180   0.52364   0.58033   0.00000  Uiso   1.00
O6     O     0.06926   0.54987   0.55015   0.00000  Uiso   1.00
H4     H     0.16275   0.52414   0.47204   0.00000  Uiso   1.00
O7     O     0.10834   0.47633   0.41955   0.00000  Uiso   1.00
O8     O     0.93080   0.45013   0.44969   0.00000  Uiso   1.00
C13    C     0.40803   0.98643   0.98419   0.00000  Uiso   1.00
C14    C     0.46399   0.97497   0.02460   0.00000  Uiso   1.00
C15    C     0.55550   0.98842   0.04025   0.00000  Uiso   1.00
C16    C     0.59232   0.01351   0.01567   0.00000  Uiso   1.00
C17    C     0.53631   0.02499   0.97529   0.00000  Uiso   1.00
C18    C     0.44478   0.01154   0.95966   0.00000  Uiso   1.00
H5     H     0.33708   0.97600   0.97207   0.00000  Uiso   1.00
O9     O     0.43059   0.95014   0.05013   0.00000  Uiso   1.00
O10    O     0.60826   0.97624   0.08051   0.00000  Uiso   1.00
H6     H     0.66331   0.02394   0.02779   0.00000  Uiso   1.00
O11    O     0.56956   0.04986   0.94984   0.00000  Uiso   1.00
O12    O     0.39184   0.02376   0.91952   0.00000  Uiso   1.00
C19    C     0.59224   0.01354   0.48450   0.00000  Uiso   1.00
C20    C     0.55544   0.98846   0.45985   0.00000  Uiso   1.00
C21    C     0.46393   0.97500   0.47536   0.00000  Uiso   1.00
C22    C     0.40799   0.98643   0.51574   0.00000  Uiso   1.00
C23    C     0.44475   0.01152   0.54035   0.00000  Uiso   1.00
C24    C     0.53628   0.02498   0.52485   0.00000  Uiso   1.00
H7     H     0.66320   0.02399   0.47248   0.00000  Uiso   1.00
O13    O     0.60823   0.97632   0.41966   0.00000  Uiso   1.00
O14    O     0.43056   0.95018   0.44975   0.00000  Uiso   1.00
H8     H     0.33706   0.97598   0.52779   0.00000  Uiso   1.00
O15    O     0.39185   0.02372   0.58045   0.00000  Uiso   1.00
O16    O     0.56960   0.04982   0.55041   0.00000  Uiso   1.00
C25    C     0.95100   0.35783   0.10039   0.00000  Uiso   1.00
C26    C     0.98786   0.38590   0.09244   0.00000  Uiso   1.00
C27    C     0.05988   0.39255   0.05373   0.00000  Uiso   1.00
C28    C     0.09123   0.37141   1.02016   0.00000  Uiso   1.00
C29    C     0.05177   0.34344   0.02698   0.00000  Uiso   1.00
C30    C     0.98463   0.33660   0.06791   0.00000  Uiso   1.00
H9     H     0.89699   0.35261   0.13128   0.00000  Uiso   1.00
O17    O     0.95445   0.40778   0.12259   0.00000  Uiso   1.00
O18    O     0.09864   0.42047   0.04962   0.00000  Uiso   1.00
H10    H     0.14526   0.37662   0.98928   0.00000  Uiso   1.00
O19    O     0.07774   0.32186   0.99369   0.00000  Uiso   1.00
O20    O     0.95219   0.30838   0.07515   0.00000  Uiso   1.00
C31    C     0.04918   0.64202   0.60031   0.00000  Uiso   1.00
C32    C     0.01222   0.61396   0.59234   0.00000  Uiso   1.00
C33    C     0.94017   0.60735   0.55355   0.00000  Uiso   1.00
C34    C     0.90887   0.62850   0.51993   0.00000  Uiso   1.00
C35    C     0.94838   0.65647   0.52681   0.00000  Uiso   1.00
C36    C     0.01560   0.66328   0.56780   0.00000  Uiso   1.00
H11    H     0.10320   0.64721   0.63128   0.00000  Uiso   1.00
O21    O     0.04548   0.59209   0.62262   0.00000  Uiso   1.00
O22    O     0.90130   0.57943   0.54944   0.00000  Uiso   1.00
H12    H     0.85479   0.62331   0.48900   0.00000  Uiso   1.00
O23    O     0.92231   0.67809   0.49355   0.00000  Uiso   1.00
O24    O     0.04812   0.69148   0.57509   0.00000  Uiso   1.00
C37    C     0.04930   0.64214   0.89963   0.00000  Uiso   1.00
C38    C     0.01237   0.61407   0.90755   0.00000  Uiso   1.00
C39    C     0.94025   0.60744   0.94621   0.00000  Uiso   1.00
C40    C     0.90887   0.62858  -0.02023   0.00000  Uiso   1.00
C41    C     0.94837   0.65654   0.97296   0.00000  Uiso   1.00
C42    C     0.01557   0.66339   0.93206   0.00000  Uiso   1.00
H13    H     0.10343   0.64735   0.86879   0.00000  Uiso   1.00
O25    O     0.04574   0.59220   0.87737   0.00000  Uiso   1.00
O26    O     0.90142   0.57952   0.95028   0.00000  Uiso   1.00
H14    H     0.85475   0.62337   0.01061   0.00000  Uiso   1.00
O27    O     0.92234   0.67813   0.00623   0.00000  Uiso   1.00
O28    O     0.04793   0.69161   0.92479   0.00000  Uiso   1.00
C43    C     0.95062   0.35795   0.39965   0.00000  Uiso   1.00
C44    C     0.98767   0.38601   0.40757   0.00000  Uiso   1.00
C45    C     0.05978   0.39262   0.44633   0.00000  Uiso   1.00
C46    C     0.09113   0.37146   0.47993   0.00000  Uiso   1.00
C47    C     0.05160   0.34351   0.47308   0.00000  Uiso   1.00
C48    C     0.98429   0.33669   0.43214   0.00000  Uiso   1.00
H15    H     0.89648   0.35276   0.36874   0.00000  Uiso   1.00
O29    O     0.95450   0.40789   0.37727   0.00000  Uiso   1.00
O30    O     0.09869   0.42053   0.45045   0.00000  Uiso   1.00
H16    H     0.14531   0.37666   0.51082   0.00000  Uiso   1.00
O31    O     0.07779   0.32190   0.50632   0.00000  Uiso   1.00
O32    O     0.95185   0.30847   0.42485   0.00000  Uiso   1.00
C49    C     0.59051   0.87147   0.01991   0.00000  Uiso   1.00
C50    C     0.55924   0.89260   0.05353   0.00000  Uiso   1.00
C51    C     0.48718   0.88597   0.09221   0.00000  Uiso   1.00
C52    C     0.45018   0.85791   0.10009   0.00000  Uiso   1.00
C53    C     0.48401   0.83665   0.06771   0.00000  Uiso   1.00
C54    C     0.55117   0.84349   0.02680   0.00000  Uiso   1.00
H17    H     0.64456   0.87669   0.98904   0.00000  Uiso   1.00
O33    O     0.59836   0.92049   0.04957   0.00000  Uiso   1.00
O34    O     0.45412   0.90782   0.12254   0.00000  Uiso   1.00
H18    H     0.39608   0.85269   0.13094   0.00000  Uiso   1.00
O35    O     0.45198   0.80842   0.07513   0.00000  Uiso   1.00
O36    O     0.57749   0.82189   0.99365   0.00000  Uiso   1.00
C55    C     0.54983   0.14207   0.60037   0.00000  Uiso   1.00
C56    C     0.51288   0.11401   0.59242   0.00000  Uiso   1.00
C57    C     0.44091   0.10739   0.55359   0.00000  Uiso   1.00
C58    C     0.40964   0.12854   0.51995   0.00000  Uiso   1.00
C59    C     0.44899   0.15651   0.52686   0.00000  Uiso   1.00
C60    C     0.51617   0.16333   0.56786   0.00000  Uiso   1.00
H19    H     0.60383   0.14728   0.63134   0.00000  Uiso   1.00
O37    O     0.54595   0.09212   0.62276   0.00000  Uiso   1.00
O38    O     0.40190   0.07950   0.54950   0.00000  Uiso   1.00
H20    H     0.35564   0.12333   0.48898   0.00000  Uiso   1.00
O39    O     0.42267   0.17811   0.49366   0.00000  Uiso   1.00
O40    O     0.54842   0.19156   0.57519   0.00000  Uiso   1.00
C61    C     0.40962   0.12854   0.98016   0.00000  Uiso   1.00
C62    C     0.44085   0.10741   0.94654   0.00000  Uiso   1.00
C63    C     0.51282   0.11405   0.90780   0.00000  Uiso   1.00
C64    C     0.54974   0.14212   0.89989   0.00000  Uiso   1.00
C65    C     0.51601   0.16336   0.93232   0.00000  Uiso   1.00
C66    C     0.44892   0.15652   0.97326   0.00000  Uiso   1.00
H21    H     0.35566   0.12332   0.01107   0.00000  Uiso   1.00
O41    O     0.40180   0.07951   0.95052   0.00000  Uiso   1.00
O42    O     0.54591   0.09219   0.87749   0.00000  Uiso   1.00
H22    H     0.60373   0.14734   0.86899   0.00000  Uiso   1.00
O43    O     0.54811   0.19160   0.92493   0.00000  Uiso   1.00
O44    O     0.42264   0.17812   0.00643   0.00000  Uiso   1.00
C67    C     0.45060   0.85796   0.39967   0.00000  Uiso   1.00
C68    C     0.48746   0.88602   0.40767   0.00000  Uiso   1.00
C69    C     0.55937   0.89264   0.44652   0.00000  Uiso   1.00
C70    C     0.59058   0.87149   0.48019   0.00000  Uiso   1.00
C71    C     0.55125   0.84352   0.47325   0.00000  Uiso   1.00
C72    C     0.48418   0.83670   0.43220   0.00000  Uiso   1.00
H23    H     0.39673   0.85275   0.36863   0.00000  Uiso   1.00
O45    O     0.45429   0.90790   0.37735   0.00000  Uiso   1.00
O46    O     0.59833   0.92055   0.45060   0.00000  Uiso   1.00
H24    H     0.64448   0.87670   0.51120   0.00000  Uiso   1.00
O47    O     0.57745   0.82190   0.50647   0.00000  Uiso   1.00
O48    O     0.45183   0.80848   0.42487   0.00000  Uiso   1.00
C73    C     0.27995   0.25741   0.05166   0.00000  Uiso   1.00
C74    C     0.18813   0.26523   0.03192   0.00000  Uiso   1.00
C75    C     0.15864   0.25790   0.98057   0.00000  Uiso   1.00
C76    C     0.22042   0.24265   0.94831   0.00000  Uiso   1.00
C77    C     0.31218   0.23480   0.96807   0.00000  Uiso   1.00
C78    C     0.34171   0.24214   0.01941   0.00000  Uiso   1.00
H25    H     0.30295   0.26309   0.09146   0.00000  Uiso   1.00
O49    O     0.12427   0.28038   0.06238   0.00000  Uiso   1.00
O50    O     0.06709   0.26618   0.96269   0.00000  Uiso   1.00
H26    H     0.19745   0.23699   0.90849   0.00000  Uiso   1.00
O51    O     0.37594   0.21958   0.93767   0.00000  Uiso   1.00
O52    O     0.43317   0.23384   0.03732   0.00000  Uiso   1.00
C79    C     0.72033   0.74254   0.55167   0.00000  Uiso   1.00
C80    C     0.65850   0.75787   0.51945   0.00000  Uiso   1.00
C81    C     0.68789   0.76528   0.46815   0.00000  Uiso   1.00
C82    C     0.77962   0.75746   0.44841   0.00000  Uiso   1.00
C83    C     0.84144   0.74212   0.48063   0.00000  Uiso   1.00
C84    C     0.81208   0.73472   0.53193   0.00000  Uiso   1.00
H27    H     0.69742   0.73680   0.59143   0.00000  Uiso   1.00
O53    O     0.56704   0.76616   0.53733   0.00000  Uiso   1.00
O54    O     0.62398   0.78049   0.43772   0.00000  Uiso   1.00
H28    H     0.80253   0.76319   0.40866   0.00000  Uiso   1.00
O55    O     0.93285   0.73383   0.46271   0.00000  Uiso   1.00
O56    O     0.87600   0.71950   0.56234   0.00000  Uiso   1.00
C85    C     0.22603   0.77106   0.96394   0.00000  Uiso   1.00
C86    C     0.32119   0.77187   0.98711   0.00000  Uiso   1.00
C87    C     0.34494   0.75094   0.02295   0.00000  Uiso   1.00
C88    C     0.27399   0.72892   0.03607   0.00000  Uiso   1.00
C89    C     0.17881   0.72810   0.01289   0.00000  Uiso   1.00
C90    C     0.15508   0.74904   0.97707   0.00000  Uiso   1.00
H29    H     0.20754   0.78727   0.93614   0.00000  Uiso   1.00
O57    O     0.39400   0.79333   0.97552   0.00000  Uiso   1.00
O58    O     0.44006   0.75272   0.04508   0.00000  Uiso   1.00
H30    H     0.29251   0.71270   0.06385   0.00000  Uiso   1.00
O59    O     0.10596   0.70664   0.02445   0.00000  Uiso   1.00
O60    O     0.05995   0.74729   0.95494   0.00000  Uiso   1.00
C91    C     0.72638   0.27104   0.53617   0.00000  Uiso   1.00
C92    C     0.82143   0.27189   0.51296   0.00000  Uiso   1.00
C93    C     0.84499   0.25098   0.47712   0.00000  Uiso   1.00
C94    C     0.77399   0.22896   0.46398   0.00000  Uiso   1.00
C95    C     0.67894   0.22813   0.48717   0.00000  Uiso   1.00
C96    C     0.65535   0.24903   0.52300   0.00000  Uiso   1.00
H31    H     0.70802   0.28723   0.56399   0.00000  Uiso   1.00
O61    O     0.89430   0.29336   0.52451   0.00000  Uiso   1.00
O62    O     0.93998   0.25276   0.45495   0.00000  Uiso   1.00
H32    H     0.79236   0.21277   0.43618   0.00000  Uiso   1.00
O63    O     0.60606   0.20667   0.47555   0.00000  Uiso   1.00
O64    O     0.56027   0.24727   0.54508   0.00000  Uiso   1.00
C97    C     0.72013   0.74260   0.94833   0.00000  Uiso   1.00
C98    C     0.81196   0.73476   0.96806   0.00000  Uiso   1.00
C99    C     0.84147   0.74208   0.01941   0.00000  Uiso   1.00
C100   C     0.77968   0.75732   0.05170   0.00000  Uiso   1.00
C101   C     0.68792   0.76519   0.03195   0.00000  Uiso   1.00
C102   C     0.65838   0.75787   0.98060   0.00000  Uiso   1.00
H33    H     0.69712   0.73694   0.90852   0.00000  Uiso   1.00
O65    O     0.87582   0.71962   0.93758   0.00000  Uiso   1.00
O66    O     0.93303   0.73380   0.03728   0.00000  Uiso   1.00
H34    H     0.80266   0.76296   0.09152   0.00000  Uiso   1.00
O67    O     0.62417   0.78041   0.06237   0.00000  Uiso   1.00
O68    O     0.56691   0.76618   0.96271   0.00000  Uiso   1.00
C103   C     0.27962   0.25736   0.44826   0.00000  Uiso   1.00
C104   C     0.34156   0.24210   0.48055   0.00000  Uiso   1.00
C105   C     0.31230   0.23477   0.53189   0.00000  Uiso   1.00
C106   C     0.22065   0.24264   0.55166   0.00000  Uiso   1.00
C107   C     0.15872   0.25790   0.51938   0.00000  Uiso   1.00
C108   C     0.18796   0.26523   0.46803   0.00000  Uiso   1.00
H35    H     0.30236   0.26301   0.40844   0.00000  Uiso   1.00
O69    O     0.43303   0.23382   0.46268   0.00000  Uiso   1.00
O70    O     0.37623   0.21957   0.56235   0.00000  Uiso   1.00
H36    H     0.19790   0.23699   0.59148   0.00000  Uiso   1.00
O71    O     0.06730   0.26619   0.53728   0.00000  Uiso   1.00
O72    O     0.12402   0.28044   0.43760   0.00000  Uiso   1.00
C109   C     0.77405   0.22896   0.03610   0.00000  Uiso   1.00
C110   C     0.67889   0.22814   0.01293   0.00000  Uiso   1.00
C111   C     0.65515   0.24906   0.97706   0.00000  Uiso   1.00
C112   C     0.72613   0.27107   0.96390   0.00000  Uiso   1.00
C113   C     0.82131   0.27188   0.98707   0.00000  Uiso   1.00
C114   C     0.84504   0.25095   0.02292   0.00000  Uiso   1.00
H37    H     0.79253   0.21276   0.06392   0.00000  Uiso   1.00
O73    O     0.60608   0.20669   0.02454   0.00000  Uiso   1.00
O74    O     0.56001   0.24729   0.95495   0.00000  Uiso   1.00
H38    H     0.70763   0.28727   0.93608   0.00000  Uiso   1.00
O75    O     0.89417   0.29334   0.97548   0.00000  Uiso   1.00
O76    O     0.94018   0.25271   0.04503   0.00000  Uiso   1.00
C115   C     0.22609   0.77104   0.53601   0.00000  Uiso   1.00
C116   C     0.32114   0.77188   0.51282   0.00000  Uiso   1.00
C117   C     0.34478   0.75098   0.47699   0.00000  Uiso   1.00
C118   C     0.27376   0.72896   0.46384   0.00000  Uiso   1.00
C119   C     0.17872   0.72811   0.48705   0.00000  Uiso   1.00
C120   C     0.15510   0.74901   0.52290   0.00000  Uiso   1.00
H39    H     0.20766   0.78724   0.56380   0.00000  Uiso   1.00
O77    O     0.39402   0.79334   0.52446   0.00000  Uiso   1.00
O78    O     0.43984   0.75277   0.45488   0.00000  Uiso   1.00
H40    H     0.29218   0.71277   0.43604   0.00000  Uiso   1.00
O79    O     0.10584   0.70663   0.47548   0.00000  Uiso   1.00
O80    O     0.06013   0.74720   0.54509   0.00000  Uiso   1.00
C121   C     0.96554   0.46602   0.24992   0.00000  Uiso   1.00
C122   C     1.00826   0.45800   0.20240   0.00000  Uiso   1.00
C123   C     0.09499   0.44319   0.20238   0.00000  Uiso   1.00
C124   C     0.14015   0.43617   0.25007   0.00000  Uiso   1.00
C125   C     0.09513   0.44325   0.29769   0.00000  Uiso   1.00
C126   C     1.00839   0.45806   0.29752   0.00000  Uiso   1.00
H41    H     0.89741   0.47709   0.24986   0.00000  Uiso   1.00
O81    O     0.96312   0.46310   0.15438   0.00000  Uiso   1.00
O82    O     0.13130   0.43448   0.15416   0.00000  Uiso   1.00
H42    H     0.20648   0.42431   0.25015   0.00000  Uiso   1.00
O83    O     0.13149   0.43458   0.34598   0.00000  Uiso   1.00
O84    O     0.96338   0.46322   0.34548   0.00000  Uiso   1.00
C127   C     0.86009   0.56380   0.74985   0.00000  Uiso   1.00
C128   C     0.90516   0.55674   0.70224   0.00000  Uiso   1.00
C129   C    -0.00803   0.54197   0.70240   0.00000  Uiso   1.00
C130   C     0.03492   0.53405   0.75001   0.00000  Uiso   1.00
C131   C    -0.00790   0.54203   0.79753   0.00000  Uiso   1.00
C132   C     0.90528   0.55680   0.79754   0.00000  Uiso   1.00
H43    H     0.79368   0.57563   0.74978   0.00000  Uiso   1.00
O85    O     0.86865   0.56537   0.65394   0.00000  Uiso   1.00
O86    O     0.03688   0.53678   0.65441   0.00000  Uiso   1.00
H44    H     0.10315   0.52302   0.75006   0.00000  Uiso   1.00
O87    O     0.03708   0.53688   0.84559   0.00000  Uiso   1.00
O88    O     0.86890   0.56549   0.84576   0.00000  Uiso   1.00
C133   C     0.63995   0.93610   0.25012   0.00000  Uiso   1.00
C134   C     0.59492   0.94320   0.29774   0.00000  Uiso   1.00
C135   C     0.50826   0.95804   0.29755   0.00000  Uiso   1.00
C136   C     0.46548   0.96601   0.24995   0.00000  Uiso   1.00
C137   C     0.50821   0.95799   0.20243   0.00000  Uiso   1.00
C138   C     0.59487   0.94315   0.20241   0.00000  Uiso   1.00
H45    H     0.70619   0.92421   0.25018   0.00000  Uiso   1.00
O89    O     0.63127   0.93455   0.34607   0.00000  Uiso   1.00
O90    O     0.46326   0.96323   0.34551   0.00000  Uiso   1.00
H46    H     0.39739   0.97711   0.24989   0.00000  Uiso   1.00
O91    O     0.46318   0.96315   0.15440   0.00000  Uiso   1.00
O92    O     0.63115   0.93445   0.15416   0.00000  Uiso   1.00
C139   C     0.53426   0.03392   0.75013   0.00000  Uiso   1.00
C140   C     0.49163   0.04198   0.79763   0.00000  Uiso   1.00
C141   C     0.40507   0.05686   0.79767   0.00000  Uiso   1.00
C142   C     0.36003   0.06393   0.74996   0.00000  Uiso   1.00
C143   C     0.40501   0.05681   0.70234   0.00000  Uiso   1.00
C144   C     0.49158   0.04194   0.70253   0.00000  Uiso   1.00
H47    H     0.60224   0.02278   0.75019   0.00000  Uiso   1.00
O93    O     0.53682   0.03686   0.84563   0.00000  Uiso   1.00
O94    O     0.36887   0.06558   0.84592   0.00000  Uiso   1.00
H48    H     0.29388   0.07586   0.74989   0.00000  Uiso   1.00
O95    O     0.36881   0.06551   0.65401   0.00000  Uiso   1.00
O96    O     0.53670   0.03677   0.65460   0.00000  Uiso   1.00
loop_
_geom_bond_atom_site_label_1
_geom_bond_atom_site_label_2
_geom_bond_distance
_geom_bond_site_symmetry_2
_ccdc_geom_bond_type
Fe1    O19     1.934   1_554 S
Fe1    O20     1.931   1_455 S
Fe1    O49     1.932   .     S
Fe1    O50     1.932   1_554 S
Fe1    O75     1.933   1_454 S
Fe1    O76     1.931   1_455 S
Fe2    O23     1.934   1_455 S
Fe2    O24     1.931   .     S
Fe2    O55     1.932   1_455 S
Fe2    O56     1.933   1_455 S
Fe2    O79     1.933   .     S
Fe2    O80     1.932   .     S
Fe3    O27     1.934   1_456 S
Fe3    O28     1.931   .     S
Fe3    O59     1.933   1_556 S
Fe3    O60     1.931   .     S
Fe3    O65     1.933   1_455 S
Fe3    O66     1.932   1_456 S
Fe4    O31     1.934   .     S
Fe4    O32     1.932   1_455 S
Fe4    O61     1.933   1_455 S
Fe4    O62     1.931   1_455 S
Fe4    O71     1.932   .     S
Fe4    O72     1.933   .     S
Fe5    O35     1.931   .     S
Fe5    O36     1.934   1_554 S
Fe5    O57     1.932   1_554 S
Fe5    O58     1.932   .     S
Fe5    O67     1.933   .     S
Fe5    O68     1.932   1_554 S
Fe6    O39     1.934   .     S
Fe6    O40     1.932   .     S
Fe6    O63     1.933   .     S
Fe6    O64     1.932   .     S
Fe6    O69     1.932   .     S
Fe6    O70     1.933   .     S
Fe7    O43     1.931   .     S
Fe7    O44     1.934   1_556 S
Fe7    O51     1.933   .     S
Fe7    O52     1.932   1_556 S
Fe7    O73     1.932   1_556 S
Fe7    O74     1.932   .     S
Fe8    O47     1.934   .     S
Fe8    O48     1.931   .     S
Fe8    O53     1.932   .     S
Fe8    O54     1.933   .     S
Fe8    O77     1.933   .     S
Fe8    O78     1.932   .     S
Fe9    O3      1.933   1_455 S
Fe9    O4      1.932   .     S
Fe9    O17     1.932   1_455 S
Fe9    O18     1.935   .     S
Fe9    O81     1.930   1_455 S
Fe9    O82     1.934   .     S
Fe10   O5      1.932   1_455 S
Fe10   O6      1.932   .     S
Fe10   O21     1.931   .     S
Fe10   O22     1.935   1_455 S
Fe10   O85     1.934   1_455 S
Fe10   O86     1.930   .     S
Fe11   O1      1.933   .     S
Fe11   O2      1.932   1_455 S
Fe11   O25     1.932   .     S
Fe11   O26     1.935   1_455 S
Fe11   O87     1.930   .     S
Fe11   O88     1.934   1_455 S
Fe12   O7      1.932   .     S
Fe12   O8      1.932   1_455 S
Fe12   O29     1.932   1_455 S
Fe12   O30     1.934   .     S
Fe12   O83     1.934   .     S
Fe12   O84     1.930   1_455 S
Fe13   O9      1.932   .     S
Fe13   O10     1.932   .     S
Fe13   O33     1.934   .     S
Fe13   O34     1.932   .     S
Fe13   O91     1.930   .     S
Fe13   O92     1.935   .     S
Fe14   O15     1.932   .     S
Fe14   O16     1.932   .     S
Fe14   O37     1.932   .     S
Fe14   O38     1.934   .     S
Fe14   O95     1.935   .     S
Fe14   O96     1.929   .     S
Fe15   O11     1.932   .     S
Fe15   O12     1.932   .     S
Fe15   O41     1.935   .     S
Fe15   O42     1.932   .     S
Fe15   O93     1.929   .     S
Fe15   O94     1.935   .     S
Fe16   O13     1.932   .     S
Fe16   O14     1.933   .     S
Fe16   O45     1.932   .     S
Fe16   O46     1.935   .     S
Fe16   O89     1.935   .     S
Fe16   O90     1.930   .     S
C1     C2      1.399   1_554 A
C1     C6      1.399   .     A
C1     H1      1.082   .     S
C2     C1      1.399   1_556 A
C2     C3      1.396   1_455 A
C2     O1      1.388   .     S
C3     C2      1.396   1_655 A
C3     C4      1.400   .     A
C3     O2      1.388   .     S
C4     C5      1.400   1_556 A
C4     H2      1.083   .     S
C5     C4      1.400   1_554 A
C5     C6      1.396   1_655 A
C5     O3      1.388   .     S
C6     C5      1.396   1_455 A
C6     O4      1.388   .     S
O2     Fe11    1.932   1_655 S
O3     Fe9     1.933   1_655 S
C7     C8      1.399   .     A
C7     C12     1.399   .     A
C7     H3      1.083   .     S
C8     C9      1.396   1_655 A
C8     O5      1.388   .     S
C9     C8      1.396   1_455 A
C9     C10     1.399   .     A
C9     O6      1.388   .     S
C10    C11     1.399   .     A
C10    H4      1.083   .     S
C11    C12     1.396   1_455 A
C11    O7      1.388   .     S
C12    C11     1.396   1_655 A
C12    O8      1.388   .     S
O5     Fe10    1.932   1_655 S
O8     Fe12    1.932   1_655 S
C13    C14     1.399   1_556 A
C13    C18     1.399   1_565 A
C13    H5      1.082   .     S
C14    C13     1.399   1_554 A
C14    C15     1.396   .     A
C14    O9      1.388   .     S
C15    C16     1.399   1_565 A
C15    O10     1.388   .     S
C16    C15     1.399   1_545 A
C16    C17     1.399   1_554 A
C16    H6      1.083   .     S
C17    C16     1.399   1_556 A
C17    C18     1.396   .     A
C17    O11     1.387   .     S
C18    C13     1.399   1_545 A
C18    O12     1.388   .     S
C19    C20     1.399   1_545 A
C19    C24     1.399   .     A
C19    H7      1.083   .     S
C20    C19     1.399   1_565 A
C20    C21     1.396   .     A
C20    O13     1.388   .     S
C21    C22     1.399   .     A
C21    O14     1.388   .     S
C22    C23     1.400   1_565 A
C22    H8      1.083   .     S
C23    C22     1.400   1_545 A
C23    C24     1.396   .     A
C23    O15     1.388   .     S
C24    O16     1.388   .     S
C25    C26     1.398   .     A
C25    C30     1.398   .     A
C25    H9      1.083   .     S
C26    C27     1.396   1_655 A
C26    O17     1.386   .     S
C27    C26     1.396   1_455 A
C27    C28     1.400   1_554 A
C27    O18     1.389   .     S
C28    C27     1.400   1_556 A
C28    C29     1.400   1_556 A
C28    H10     1.082   .     S
C29    C28     1.400   1_554 A
C29    C30     1.396   1_455 A
C29    O19     1.388   1_554 S
C30    C29     1.396   1_655 A
C30    O20     1.387   .     S
O17    Fe9     1.932   1_655 S
O19    Fe1     1.934   1_556 S
O19    C29     1.388   1_556 S
O20    Fe1     1.931   1_655 S
C31    C32     1.398   .     A
C31    C36     1.398   .     A
C31    H11     1.083   .     S
C32    C33     1.396   1_455 A
C32    O21     1.386   .     S
C33    C32     1.396   1_655 A
C33    C34     1.400   .     A
C33    O22     1.389   .     S
C34    C35     1.401   .     A
C34    H12     1.082   .     S
C35    C36     1.396   1_655 A
C35    O23     1.388   .     S
C36    C35     1.396   1_455 A
C36    O24     1.387   .     S
O22    Fe10    1.935   1_655 S
O23    Fe2     1.934   1_655 S
C37    C38     1.398   .     A
C37    C42     1.398   .     A
C37    H13     1.083   .     S
C38    C39     1.396   1_455 A
C38    O25     1.386   .     S
C39    C38     1.396   1_655 A
C39    C40     1.400   1_556 A
C39    O26     1.389   .     S
C40    C39     1.400   1_554 A
C40    C41     1.400   1_554 A
C40    H14     1.083   .     S
C41    C40     1.400   1_556 A
C41    C42     1.396   1_655 A
C41    O27     1.388   1_556 S
C42    C41     1.396   1_455 A
C42    O28     1.387   .     S
O26    Fe11    1.935   1_655 S
O27    Fe3     1.934   1_654 S
O27    C41     1.388   1_554 S
C43    C44     1.398   .     A
C43    C48     1.398   .     A
C43    H15     1.083   .     S
C44    C45     1.396   1_655 A
C44    O29     1.386   .     S
C45    C44     1.396   1_455 A
C45    C46     1.400   .     A
C45    O30     1.389   .     S
C46    C47     1.400   .     A
C46    H16     1.082   .     S
C47    C48     1.396   1_455 A
C47    O31     1.388   .     S
C48    C47     1.396   1_655 A
C48    O32     1.387   .     S
O29    Fe12    1.932   1_655 S
O32    Fe4     1.932   1_655 S
C49    C50     1.400   .     A
C49    C54     1.401   .     A
C49    H17     1.083   1_554 S
C50    C51     1.396   .     A
C50    O33     1.389   .     S
C51    C52     1.398   .     A
C51    O34     1.386   .     S
C52    C53     1.398   .     A
C52    H18     1.082   .     S
C53    C54     1.396   .     A
C53    O35     1.387   .     S
C54    O36     1.388   1_554 S
H17    C49     1.083   1_556 S
O36    Fe5     1.934   1_556 S
O36    C54     1.388   1_556 S
C55    C56     1.399   .     A
C55    C60     1.398   .     A
C55    H19     1.083   .     S
C56    C57     1.396   .     A
C56    O37     1.386   .     S
C57    C58     1.400   .     A
C57    O38     1.389   .     S
C58    C59     1.400   .     A
C58    H20     1.082   .     S
C59    C60     1.396   .     A
C59    O39     1.388   .     S
C60    O40     1.387   .     S
C61    C62     1.400   .     A
C61    C66     1.400   .     A
C61    H21     1.082   1_556 S
C62    C63     1.396   .     A
C62    O41     1.389   .     S
C63    C64     1.398   .     A
C63    O42     1.386   .     S
C64    C65     1.398   .     A
C64    H22     1.083   .     S
C65    C66     1.396   .     A
C65    O43     1.387   .     S
C66    O44     1.388   1_556 S
H21    C61     1.082   1_554 S
O44    Fe7     1.934   1_554 S
O44    C66     1.388   1_554 S
C67    C68     1.398   .     A
C67    C72     1.398   .     A
C67    H23     1.083   .     S
C68    C69     1.396   .     A
C68    O45     1.386   .     S
C69    C70     1.400   .     A
C69    O46     1.389   .     S
C70    C71     1.401   .     A
C70    H24     1.082   .     S
C71    C72     1.396   .     A
C71    O47     1.388   .     S
C72    O48     1.387   .     S
C73    C74     1.399   .     A
C73    C78     1.399   .     A
C73    H25     1.083   .     S
C74    C75     1.396   1_554 A
C74    O49     1.388   .     S
C75    C74     1.396   1_556 A
C75    C76     1.399   .     A
C75    O50     1.387   .     S
C76    C77     1.399   .     A
C76    H26     1.083   .     S
C77    C78     1.396   1_556 A
C77    O51     1.388   .     S
C78    C77     1.396   1_554 A
C78    O52     1.386   .     S
O50    Fe1     1.932   1_556 S
O52    Fe7     1.932   1_554 S
C79    C80     1.400   .     A
C79    C84     1.399   .     A
C79    H27     1.083   .     S
C80    C81     1.396   .     A
C80    O53     1.387   .     S
C81    C82     1.399   .     A
C81    O54     1.389   .     S
C82    C83     1.399   .     A
C82    H28     1.082   .     S
C83    C84     1.396   .     A
C83    O55     1.387   .     S
C84    O56     1.389   .     S
O55    Fe2     1.932   1_655 S
O56    Fe2     1.933   1_655 S
C85    C86     1.399   .     A
C85    C90     1.399   .     A
C85    H29     1.083   .     S
C86    C87     1.396   1_556 A
C86    O57     1.388   .     S
C87    C86     1.396   1_554 A
C87    C88     1.399   .     A
C87    O58     1.387   .     S
C88    C89     1.399   .     A
C88    H30     1.083   .     S
C89    C90     1.396   1_554 A
C89    O59     1.388   .     S
C90    C89     1.396   1_556 A
C90    O60     1.387   .     S
O57    Fe5     1.932   1_556 S
O59    Fe3     1.933   1_554 S
C91    C92     1.399   .     A
C91    C96     1.400   .     A
C91    H31     1.082   .     S
C92    C93     1.396   .     A
C92    O61     1.389   .     S
C93    C94     1.399   .     A
C93    O62     1.387   .     S
C94    C95     1.399   .     A
C94    H32     1.082   .     S
C95    C96     1.396   .     A
C95    O63     1.388   .     S
C96    O64     1.387   .     S
O61    Fe4     1.933   1_655 S
O62    Fe4     1.931   1_655 S
C97    C98     1.399   .     A
C97    C102    1.399   .     A
C97    H33     1.083   .     S
C98    C99     1.396   1_556 A
C98    O65     1.388   .     S
C99    C98     1.396   1_554 A
C99    C100    1.399   .     A
C99    O66     1.387   .     S
C100   C101    1.399   .     A
C100   H34     1.083   .     S
C101   C102    1.396   1_554 A
C101   O67     1.389   .     S
C102   C101    1.396   1_556 A
C102   O68     1.386   .     S
O65    Fe3     1.933   1_655 S
O66    Fe3     1.932   1_654 S
O68    Fe5     1.932   1_556 S
C103   C104    1.400   .     A
C103   C108    1.399   .     A
C103   H35     1.083   .     S
C104   C105    1.396   .     A
C104   O69     1.387   .     S
C105   C106    1.399   .     A
C105   O70     1.389   .     S
C106   C107    1.400   .     A
C106   H36     1.082   .     S
C107   C108    1.396   .     A
C107   O71     1.387   .     S
C108   O72     1.389   .     S
C109   C110    1.399   .     A
C109   C114    1.399   .     A
C109   H37     1.083   .     S
C110   C111    1.396   1_554 A
C110   O73     1.388   .     S
C111   C110    1.396   1_556 A
C111   C112    1.399   .     A
C111   O74     1.387   .     S
C112   C113    1.399   .     A
C112   H38     1.083   .     S
C113   C114    1.396   1_556 A
C113   O75     1.388   .     S
C114   C113    1.396   1_554 A
C114   O76     1.387   .     S
O73    Fe7     1.932   1_554 S
O75    Fe1     1.933   1_656 S
O76    Fe1     1.931   1_655 S
C115   C116    1.399   .     A
C115   C120    1.400   .     A
C115   H39     1.082   .     S
C116   C117    1.396   .     A
C116   O77     1.388   .     S
C117   C118    1.400   .     A
C117   O78     1.387   .     S
C118   C119    1.399   .     A
C118   H40     1.082   .     S
C119   C120    1.396   .     A
C119   O79     1.389   .     S
C120   O80     1.387   .     S
C121   C122    1.398   .     A
C121   C126    1.398   .     A
C121   H41     1.083   .     S
C122   C123    1.397   1_655 A
C122   O81     1.387   .     S
C123   C122    1.397   1_455 A
C123   C124    1.401   .     A
C123   O82     1.389   .     S
C124   C125    1.401   .     A
C124   H42     1.082   .     S
C125   C126    1.397   1_455 A
C125   O83     1.389   .     S
C126   C125    1.397   1_655 A
C126   O84     1.387   .     S
O81    Fe9     1.930   1_655 S
O84    Fe12    1.930   1_655 S
C127   C128    1.401   .     A
C127   C132    1.401   .     A
C127   H43     1.082   .     S
C128   C129    1.397   1_655 A
C128   O85     1.389   .     S
C129   C128    1.397   1_455 A
C129   C130    1.398   .     A
C129   O86     1.387   .     S
C130   C131    1.398   .     A
C130   H44     1.083   .     S
C131   C132    1.397   1_455 A
C131   O87     1.387   .     S
C132   C131    1.397   1_655 A
C132   O88     1.389   .     S
O85    Fe10    1.934   1_655 S
O88    Fe11    1.934   1_655 S
C133   C134    1.401   .     A
C133   C138    1.401   .     A
C133   H45     1.082   .     S
C134   C135    1.397   .     A
C134   O89     1.389   .     S
C135   C136    1.398   .     A
C135   O90     1.387   .     S
C136   C137    1.398   .     A
C136   H46     1.082   .     S
C137   C138    1.396   .     A
C137   O91     1.387   .     S
C138   O92     1.389   .     S
C139   C140    1.397   .     A
C139   C144    1.398   .     A
C139   H47     1.082   .     S
C140   C141    1.396   .     A
C140   O93     1.386   .     S
C141   C142    1.401   .     A
C141   O94     1.389   .     S
C142   C143    1.401   .     A
C142   H48     1.082   .     S
C143   C144    1.396   .     A
C143   O95     1.389   .     S
C144   O96     1.386   .     S
