data_cdj-spacer_B_O-Fe3O
_audit_creation_date              2021-11-06
_audit_creation_method            'Materials Studio'
_symmetry_space_group_name_H-M    'PM-3'
_symmetry_Int_Tables_number       200
_symmetry_cell_setting            cubic
loop_
_symmetry_equiv_pos_as_xyz
  x,y,z
  -x,-y,z
  -x,y,-z
  x,-y,-z
  z,x,y
  z,-x,-y
  -z,-x,y
  -z,x,-y
  y,z,x
  -y,z,-x
  y,-z,-x
  -y,-z,x
  -x,-y,-z
  x,y,-z
  x,-y,z
  -x,y,z
  -z,-x,-y
  -z,x,y
  z,x,-y
  z,-x,y
  -y,-z,-x
  y,-z,x
  -y,z,x
  y,z,-x
_cell_length_a                    40.0118
_cell_length_b                    40.0118
_cell_length_c                    40.0118
_cell_angle_alpha                 90.0000
_cell_angle_beta                  90.0000
_cell_angle_gamma                 90.0000
loop_
_atom_site_label
_atom_site_type_symbol
_atom_site_fract_x
_atom_site_fract_y
_atom_site_fract_z
_atom_site_U_iso_or_equiv
_atom_site_adp_type
_atom_site_occupancy
C1     C     0.98276   0.21438   0.11864   0.00000  Uiso   1.00
C2     C     0.03502   0.22543   0.09148   0.00000  Uiso   1.00
O3     O     0.03245   0.24183   0.03191   0.00000  Uiso   1.00
O4     O     0.03500   0.20584   0.14655   0.00000  Uiso   1.00
O5     O     0.06940   0.22816   0.09658   0.00000  Uiso   1.00
C6     C     0.01743   0.76629   0.93802   0.00000  Uiso   1.00
C7     C     0.48264   0.78488   0.62148   0.00000  Uiso   1.00
C8     C     0.53494   0.79068   0.59254   0.00000  Uiso   1.00
C9     C     0.51734   0.79543   0.56244   0.00000  Uiso   1.00
O10    O     0.53249   0.79989   0.53174   0.00000  Uiso   1.00
O11    O     0.53571   0.77951   0.64996   0.00000  Uiso   1.00
O12    O     0.56948   0.79116   0.59579   0.00000  Uiso   1.00
Fe13   Fe    0.26713   0.21183   0.25242   0.00000  Uiso   1.00
Cu14   Cu    0.36001   0.57923   0.78507   0.00000  Uiso   1.00
O15    O     0.31619   0.58792   0.77892   0.00000  Uiso   1.00
O16    O     0.36904   0.62343   0.79096   0.00000  Uiso   1.00
C17    C     0.31108   0.62163   0.78282   0.00000  Uiso   1.00
C18    C     0.33899   0.64069   0.78932   0.00000  Uiso   1.00
C19    C     0.27944   0.63598   0.78039   0.00000  Uiso   1.00
C20    C     0.27621   0.67039   0.78482   0.00000  Uiso   1.00
C21    C     0.30426   0.69011   0.79165   0.00000  Uiso   1.00
C22    C     0.33610   0.67535   0.79391   0.00000  Uiso   1.00
O23    O     0.24527   0.68570   0.78253   0.00000  Uiso   1.00
O24    O     0.29944   0.72424   0.79600   0.00000  Uiso   1.00
Cu25   Cu    0.22141   0.85858   0.92346   0.00000  Uiso   1.00
O26    O     0.21521   0.81426   0.91841   0.00000  Uiso   1.00
O27    O     0.23731   0.86224   0.88093   0.00000  Uiso   1.00
C28    C     0.22822   0.80476   0.88822   0.00000  Uiso   1.00
C29    C     0.23907   0.83013   0.86765   0.00000  Uiso   1.00
C30    C     0.25072   0.82280   0.83538   0.00000  Uiso   1.00
C31    C     0.25049   0.78925   0.82464   0.00000  Uiso   1.00
C32    C     0.24187   0.76362   0.84685   0.00000  Uiso   1.00
C33    C     0.23029   0.77130   0.87877   0.00000  Uiso   1.00
O34    O     0.26017   0.77828   0.79321   0.00000  Uiso   1.00
O35    O     0.24336   0.73060   0.83554   0.00000  Uiso   1.00
H36    H     0.25775   0.62066   0.77517   0.00000  Uiso   1.00
H37    H     0.35795   0.69043   0.79909   0.00000  Uiso   1.00
H38    H     0.26008   0.84259   0.81974   0.00000  Uiso   1.00
H39    H     0.22227   0.75170   0.89560   0.00000  Uiso   1.00
O40    O     0.25915   0.25915   0.25915   0.00000  Uiso   1.00
Cu41   Cu    0.00000   0.24226   0.00000   0.00000  Uiso   1.00
Cu42   Cu    0.50000   0.80012   0.50000   0.00000  Uiso   1.00
loop_
_geom_bond_atom_site_label_1
_geom_bond_atom_site_label_2
_geom_bond_distance
_geom_bond_site_symmetry_2
_ccdc_geom_bond_type
C1     C2      1.372   16_655 A
C1     C1      1.380   16_755 A
C1     O4      1.367   16_655 S
C2     C1      1.372   16_655 A
C2     C6      1.414   4_566 A
C2     O5      1.395   .     S
O3     C6      1.384   4_566 S
O3     Cu41    1.821   .     S
O4     Cu25    1.787   8_656 S
O4     C1      1.367   16_655 S
O5     Cu25    1.837   8_656 S
C6     O3      1.384   4_566 S
C6     C2      1.414   4_566 A
C6     C6      1.394   16    A
C7     C7      1.390   16_655 A
C7     C8      1.375   16_655 A
C7     O11     1.372   16_655 S
C8     C7      1.375   16_655 A
C8     C9      1.408   .     A
C8     O12     1.389   .     S
C9     C9      1.388   16_655 A
C9     O10     1.381   .     S
O10    Cu42    1.817   .     S
O11    Cu14    1.800   24_556 S
O11    C7      1.372   16_655 S
O12    Cu14    1.827   24_556 S
Fe13   O40     1.939   .     S
Fe13   O23     1.922   12_665 S
Fe13   O24     1.938   12_665 S
Fe13   O34     1.889   4_566 S
Fe13   O35     1.932   12_665 S
Fe13   O34     1.854   12_665 S
Fe13   Fe13    2.807   9     S
Fe13   Fe13    2.807   5     S
Cu14   O11     1.800   18_655 S
Cu14   O12     1.827   18_655 S
Cu14   O15     1.805   .     S
Cu14   O16     1.820   .     S
O15    C17     1.373   .     S
O16    C18     1.388   .     S
C17    C18     1.377   .     A
C17    C19     1.393   .     A
C18    C22     1.404   .     A
C19    C20     1.394   .     A
C19    H36     1.083   .     S
C20    C21     1.399   .     A
C20    O23     1.384   .     S
C21    C22     1.407   .     A
C21    O24     1.390   .     S
C22    H37     1.082   .     S
O23    Fe13    1.922   6_566 S
O24    Fe13    1.938   6_566 S
Cu25   O4      1.787   11_566 S
Cu25   O5      1.837   11_566 S
Cu25   O26     1.802   .     S
Cu25   O27     1.823   .     S
O26    C28     1.369   .     S
O27    C29     1.392   .     S
C28    C29     1.377   .     A
C28    C33     1.394   .     A
C29    C30     1.404   .     A
C30    C31     1.410   .     A
C30    H38     1.076   .     S
C31    C32     1.400   .     A
C31    O34     1.387   .     S
C32    C33     1.393   .     A
C32    O35     1.398   .     S
C33    H39     1.083   .     S
O34    Fe13    1.889   4_566 S
O34    Fe13    1.854   6_566 S
O35    Fe13    1.932   6_566 S
O40    Fe13    1.939   9     S
O40    Fe13    1.939   5     S
Cu41   O3      1.821   14    S
Cu41   O3      1.821   16    S
Cu41   O3      1.821   3     S
Cu42   O10     1.817   14_556 S
Cu42   O10     1.817   16_655 S
Cu42   O10     1.817   3_656 S
