data_cdj-spacer_TN_O-Fe3O
_audit_creation_date              2021-11-06
_audit_creation_method            'Materials Studio'
_symmetry_space_group_name_H-M    'PM-3'
_symmetry_Int_Tables_number       200
_symmetry_cell_setting            cubic
loop_
_symmetry_equiv_pos_as_xyz
  x,y,z
  -x,-y,z
  -x,y,-z
  x,-y,-z
  z,x,y
  z,-x,-y
  -z,-x,y
  -z,x,-y
  y,z,x
  -y,z,-x
  y,-z,-x
  -y,-z,x
  -x,-y,-z
  x,y,-z
  x,-y,z
  -x,y,z
  -z,-x,-y
  -z,x,y
  z,x,-y
  z,-x,y
  -y,-z,-x
  y,-z,x
  -y,z,x
  y,z,-x
_cell_length_a                    61.0775
_cell_length_b                    61.0775
_cell_length_c                    61.0775
_cell_angle_alpha                 90.0000
_cell_angle_beta                  90.0000
_cell_angle_gamma                 90.0000
loop_
_atom_site_label
_atom_site_type_symbol
_atom_site_fract_x
_atom_site_fract_y
_atom_site_fract_z
_atom_site_U_iso_or_equiv
_atom_site_adp_type
_atom_site_occupancy
C1     C     0.97668   0.29285   0.14012   0.00000  Uiso   1.00
C2     C     0.98831   0.28560   0.15903   0.00000  Uiso   1.00
C3     C     0.01168   0.29692   0.12028   0.00000  Uiso   1.00
C4     C     0.04641   0.29566   0.14162   0.00000  Uiso   1.00
C5     C     0.05804   0.28969   0.16043   0.00000  Uiso   1.00
C6     C     0.04666   0.28092   0.17843   0.00000  Uiso   1.00
C7     C     0.02394   0.27912   0.17770   0.00000  Uiso   1.00
C8     C     0.97717   0.29996   0.10008   0.00000  Uiso   1.00
C9     C     0.98847   0.30306   0.08044   0.00000  Uiso   1.00
C10    C     0.02296   0.30545   0.06053   0.00000  Uiso   1.00
C11    C     0.05820   0.27436   0.19724   0.00000  Uiso   1.00
C12    C     0.08086   0.27667   0.19785   0.00000  Uiso   1.00
C13    C     0.09208   0.28547   0.18049   0.00000  Uiso   1.00
C14    C     0.08100   0.29215   0.16157   0.00000  Uiso   1.00
O15    O     0.02120   0.30931   0.02078   0.00000  Uiso   1.00
O16    O     0.09322   0.27032   0.21563   0.00000  Uiso   1.00
O17    O     0.11454   0.28706   0.18301   0.00000  Uiso   1.00
H18    H     0.09016   0.29892   0.14797   0.00000  Uiso   1.00
C19    C     0.01123   0.69246   0.95899   0.00000  Uiso   1.00
H20    H     0.05579   0.69700   0.87140   0.00000  Uiso   1.00
H21    H     0.01646   0.72738   0.80777   0.00000  Uiso   1.00
H22    H     0.04977   0.73249   0.78873   0.00000  Uiso   1.00
C23    C     0.47684   0.80304   0.63960   0.00000  Uiso   1.00
C24    C     0.48827   0.79582   0.65870   0.00000  Uiso   1.00
C25    C     0.51162   0.80704   0.61976   0.00000  Uiso   1.00
C26    C     0.54608   0.80599   0.64074   0.00000  Uiso   1.00
C27    C     0.55808   0.79946   0.65891   0.00000  Uiso   1.00
C28    C     0.54730   0.79073   0.67733   0.00000  Uiso   1.00
C29    C     0.52434   0.78937   0.67730   0.00000  Uiso   1.00
C30    C     0.47721   0.81005   0.59955   0.00000  Uiso   1.00
C31    C     0.48848   0.81364   0.58003   0.00000  Uiso   1.00
C32    C     0.52297   0.81655   0.56024   0.00000  Uiso   1.00
C33    C     0.51123   0.81923   0.54083   0.00000  Uiso   1.00
C34    C     0.55987   0.78376   0.69551   0.00000  Uiso   1.00
C35    C     0.58279   0.78544   0.69468   0.00000  Uiso   1.00
C36    C     0.59295   0.79397   0.67655   0.00000  Uiso   1.00
C37    C     0.58098   0.80124   0.65866   0.00000  Uiso   1.00
H38    H     0.55515   0.81376   0.62775   0.00000  Uiso   1.00
H39    H     0.51687   0.78313   0.69199   0.00000  Uiso   1.00
H40    H     0.45969   0.80863   0.59817   0.00000  Uiso   1.00
H41    H     0.54070   0.81646   0.55980   0.00000  Uiso   1.00
O42    O     0.52121   0.82162   0.52070   0.00000  Uiso   1.00
H43    H     0.55208   0.77700   0.70993   0.00000  Uiso   1.00
O44    O     0.59658   0.77871   0.71142   0.00000  Uiso   1.00
O45    O     0.61547   0.79466   0.67695   0.00000  Uiso   1.00
H46    H     0.58953   0.80782   0.64457   0.00000  Uiso   1.00
Fe47   Fe    0.26421   0.22689   0.24580   0.00000  Uiso   1.00
Cu48   Cu    0.29738   0.62470   0.78337   0.00000  Uiso   1.00
O49    O     0.27156   0.63437   0.77217   0.00000  Uiso   1.00
O50    O     0.30652   0.65248   0.78806   0.00000  Uiso   1.00
C51    C     0.27144   0.65703   0.77341   0.00000  Uiso   1.00
C52    C     0.29008   0.66656   0.78177   0.00000  Uiso   1.00
C53    C     0.25359   0.66996   0.76703   0.00000  Uiso   1.00
C54    C     0.25499   0.69277   0.76952   0.00000  Uiso   1.00
C55    C     0.27404   0.70232   0.77787   0.00000  Uiso   1.00
C56    C     0.29181   0.68926   0.78398   0.00000  Uiso   1.00
O57    O     0.23762   0.70646   0.76429   0.00000  Uiso   1.00
O58    O     0.27462   0.72488   0.78037   0.00000  Uiso   1.00
Cu59   Cu    0.27493   0.79080   0.87827   0.00000  Uiso   1.00
O60    O     0.26253   0.76480   0.87129   0.00000  Uiso   1.00
O61    O     0.27944   0.79713   0.84960   0.00000  Uiso   1.00
C62    C     0.26083   0.76359   0.84882   0.00000  Uiso   1.00
C63    C     0.27005   0.78066   0.83723   0.00000  Uiso   1.00
C64    C     0.26901   0.78126   0.81433   0.00000  Uiso   1.00
C65    C     0.25823   0.76416   0.80356   0.00000  Uiso   1.00
C66    C     0.24849   0.74698   0.81530   0.00000  Uiso   1.00
C67    C     0.24993   0.74648   0.83814   0.00000  Uiso   1.00
O68    O     0.25316   0.76428   0.78157   0.00000  Uiso   1.00
O69    O     0.23735   0.73084   0.80332   0.00000  Uiso   1.00
H70    H     0.23886   0.66246   0.76063   0.00000  Uiso   1.00
H71    H     0.30651   0.69658   0.79064   0.00000  Uiso   1.00
H72    H     0.27571   0.79496   0.80532   0.00000  Uiso   1.00
H73    H     0.24251   0.73331   0.84738   0.00000  Uiso   1.00
H74    H     0.95960   0.29886   0.09886   0.00000  Uiso   1.00
H75    H     0.04070   0.30534   0.06010   0.00000  Uiso   1.00
O76    O     0.25554   0.25554   0.25554   0.00000  Uiso   1.00
Cu77   Cu    0.00000   0.30941   0.00000   0.00000  Uiso   1.00
Cu78   Cu    0.50000   0.82175   0.50000   0.00000  Uiso   1.00
loop_
_geom_bond_atom_site_label_1
_geom_bond_atom_site_label_2
_geom_bond_distance
_geom_bond_site_symmetry_2
_ccdc_geom_bond_type
C1     C2      1.426   .     A
C1     C3      1.427   16_655 A
C1     C4      1.424   16_655 A
C2     C7      1.420   16_655 A
C2     C2      1.428   16_755 A
C3     C1      1.427   16_655 A
C3     C8      1.421   16_655 A
C3     C3      1.427   16    A
C4     C1      1.424   16_655 A
C4     C5      1.399   .     A
C4     H20     1.078   4_566 S
C5     C6      1.407   .     A
C5     C14     1.412   .     A
C6     C7      1.393   .     A
C6     C11     1.406   .     A
C7     C2      1.420   16_655 A
C7     H21     1.074   4_566 S
C8     C3      1.421   16_655 A
C8     C9      1.397   .     A
C8     H74     1.077   .     S
C9     C10     1.410   16_655 A
C9     C9      1.408   16_755 A
C10    C9      1.410   16_655 A
C10    C19     1.397   4_566 A
C10    H75     1.084   .     S
C11    C12     1.391   .     A
C11    H22     1.084   4_566 S
C12    C13     1.372   .     A
C12    O16     1.378   .     S
C13    C14     1.400   .     A
C13    O17     1.384   .     S
C14    H18     1.083   .     S
O15    C19     1.382   4_566 S
O15    Cu77    1.813   .     S
O16    Cu59    1.807   8_656 S
O17    Cu59    1.817   8_656 S
C19    O15     1.382   4_566 S
C19    C10     1.397   4_566 A
C19    C19     1.372   16    A
H20    C4      1.078   4_566 S
H21    C7      1.074   4_566 S
H22    C11     1.084   4_566 S
C23    C24     1.429   .     A
C23    C25     1.423   16_655 A
C23    C26     1.413   16_655 A
C24    C24     1.433   16_655 A
C24    C29     1.427   16_655 A
C25    C23     1.423   16_655 A
C25    C25     1.420   16_655 A
C25    C30     1.422   16_655 A
C26    C23     1.413   16_655 A
C26    C27     1.388   .     A
C26    H38     1.078   .     S
C27    C28     1.408   .     A
C27    C37     1.403   .     A
C28    C29     1.405   .     A
C28    C34     1.415   .     A
C29    C24     1.427   16_655 A
C29    H39     1.076   .     S
C30    C25     1.422   16_655 A
C30    C31     1.394   .     A
C30    H40     1.077   .     S
C31    C31     1.407   16_655 A
C31    C32     1.408   16_655 A
C32    C31     1.408   16_655 A
C32    C33     1.394   .     A
C32    H41     1.084   .     S
C33    C33     1.372   16_655 A
C33    O42     1.380   .     S
C34    C35     1.404   .     A
C34    H43     1.083   .     S
C35    C36     1.372   .     A
C35    O44     1.387   .     S
C36    C37     1.388   .     A
C36    O45     1.376   .     S
C37    H46     1.084   .     S
O42    Cu78    1.810   .     S
O44    Cu48    1.822   24_556 S
O45    Cu48    1.804   24_556 S
Fe47   O76     1.923   .     S
Fe47   O57     1.936   12_665 S
Fe47   O58     1.934   12_665 S
Fe47   O68     1.882   4_566 S
Fe47   O69     1.940   12_665 S
Fe47   O68     1.870   12_665 S
Fe47   Fe47    2.792   9     S
Fe47   Fe47    2.792   5     S
Cu48   O44     1.822   18_655 S
Cu48   O45     1.804   18_655 S
Cu48   O49     1.818   .     S
Cu48   O50     1.809   .     S
O49    C51     1.386   .     S
O50    C52     1.377   .     S
C51    C52     1.377   .     A
C51    C53     1.402   .     A
C52    C56     1.397   .     A
C53    C54     1.405   .     A
C53    H70     1.082   .     S
C54    C55     1.398   .     A
C54    O57     1.388   .     S
C55    C56     1.398   .     A
C55    O58     1.386   .     S
C56    H71     1.083   .     S
O57    Fe47    1.936   6_566 S
O58    Fe47    1.934   6_566 S
Cu59   O16     1.807   11_566 S
Cu59   O17     1.817   11_566 S
Cu59   O60     1.811   .     S
Cu59   O61     1.814   .     S
O60    C62     1.379   .     S
O61    C63     1.383   .     S
C62    C63     1.380   .     A
C62    C67     1.400   .     A
C63    C64     1.401   .     A
C64    C65     1.399   .     A
C64    H72     1.081   .     S
C65    C66     1.403   .     A
C65    O68     1.378   .     S
C66    C67     1.398   .     A
C66    O69     1.404   .     S
C67    H73     1.082   .     S
O68    Fe47    1.882   4_566 S
O68    Fe47    1.870   6_566 S
O69    Fe47    1.940   6_566 S
O76    Fe47    1.923   9     S
O76    Fe47    1.923   5     S
Cu77   O15     1.813   14    S
Cu77   O15     1.813   16    S
Cu77   O15     1.813   3     S
Cu78   O42     1.810   14_556 S
Cu78   O42     1.810   16_655 S
Cu78   O42     1.810   3_656 S
