data_cdj-spacer_TP_O-Fe3O
_audit_creation_date              2021-11-06
_audit_creation_method            'Materials Studio'
_symmetry_space_group_name_H-M    'PM-3'
_symmetry_Int_Tables_number       200
_symmetry_cell_setting            cubic
loop_
_symmetry_equiv_pos_as_xyz
  x,y,z
  -x,-y,z
  -x,y,-z
  x,-y,-z
  z,x,y
  z,-x,-y
  -z,-x,y
  -z,x,-y
  y,z,x
  -y,z,-x
  y,-z,-x
  -y,-z,x
  -x,-y,-z
  x,y,-z
  x,-y,z
  -x,y,z
  -z,-x,-y
  -z,x,y
  z,x,-y
  z,-x,y
  -y,-z,-x
  y,-z,x
  -y,z,x
  y,z,-x
_cell_length_a                    51.0822
_cell_length_b                    51.0822
_cell_length_c                    51.0822
_cell_angle_alpha                 90.0000
_cell_angle_beta                  90.0000
_cell_angle_gamma                 90.0000
loop_
_atom_site_label
_atom_site_type_symbol
_atom_site_fract_x
_atom_site_fract_y
_atom_site_fract_z
_atom_site_U_iso_or_equiv
_atom_site_adp_type
_atom_site_occupancy
C1     C     0.97207   0.24372   0.11980   0.00000  Uiso   1.00
C2     C     0.98605   0.23531   0.14255   0.00000  Uiso   1.00
C3     C     0.01402   0.24867   0.09615   0.00000  Uiso   1.00
C4     C     0.05560   0.24695   0.12162   0.00000  Uiso   1.00
C5     C     0.06878   0.24070   0.14465   0.00000  Uiso   1.00
C6     C     0.05553   0.23094   0.16561   0.00000  Uiso   1.00
C7     C     0.02857   0.22809   0.16510   0.00000  Uiso   1.00
C8     C     0.97269   0.25266   0.07201   0.00000  Uiso   1.00
C9     C     0.98666   0.25637   0.04896   0.00000  Uiso   1.00
O10    O     0.02529   0.25914   0.02484   0.00000  Uiso   1.00
O11    O     0.07023   0.22508   0.18747   0.00000  Uiso   1.00
O12    O     0.09549   0.24405   0.14795   0.00000  Uiso   1.00
H13    H     0.06730   0.74498   0.89397   0.00000  Uiso   1.00
H14    H     0.01997   0.77928   0.81717   0.00000  Uiso   1.00
C15    C     0.47216   0.78557   0.62054   0.00000  Uiso   1.00
C16    C     0.48603   0.77908   0.64403   0.00000  Uiso   1.00
C17    C     0.51399   0.78883   0.59660   0.00000  Uiso   1.00
C18    C     0.55546   0.78864   0.62185   0.00000  Uiso   1.00
C19    C     0.56885   0.78373   0.64494   0.00000  Uiso   1.00
C20    C     0.55594   0.77584   0.66689   0.00000  Uiso   1.00
C21    C     0.52879   0.77358   0.66702   0.00000  Uiso   1.00
C22    C     0.47272   0.79123   0.57221   0.00000  Uiso   1.00
C23    C     0.48668   0.79372   0.54901   0.00000  Uiso   1.00
H24    H     0.56714   0.79542   0.60566   0.00000  Uiso   1.00
H25    H     0.52016   0.76784   0.68535   0.00000  Uiso   1.00
H26    H     0.45177   0.79015   0.57026   0.00000  Uiso   1.00
O27    O     0.52530   0.79536   0.52481   0.00000  Uiso   1.00
O28    O     0.57130   0.77108   0.68869   0.00000  Uiso   1.00
O29    O     0.59563   0.78654   0.64709   0.00000  Uiso   1.00
Fe30   Fe    0.26705   0.22231   0.24734   0.00000  Uiso   1.00
Cu31   Cu    0.31986   0.60504   0.77808   0.00000  Uiso   1.00
O32    O     0.28674   0.61462   0.76947   0.00000  Uiso   1.00
O33    O     0.32856   0.63862   0.78538   0.00000  Uiso   1.00
C34    C     0.28455   0.64137   0.77297   0.00000  Uiso   1.00
C35    C     0.30670   0.65403   0.78164   0.00000  Uiso   1.00
C36    C     0.26141   0.65529   0.76822   0.00000  Uiso   1.00
C37    C     0.26109   0.68237   0.77276   0.00000  Uiso   1.00
C38    C     0.28352   0.69505   0.78204   0.00000  Uiso   1.00
C39    C     0.30660   0.68097   0.78639   0.00000  Uiso   1.00
O40    O     0.23878   0.69728   0.76841   0.00000  Uiso   1.00
O41    O     0.28220   0.72172   0.78686   0.00000  Uiso   1.00
Cu42   Cu    0.23520   0.81857   0.89646   0.00000  Uiso   1.00
O43    O     0.22638   0.78513   0.88889   0.00000  Uiso   1.00
O44    O     0.24562   0.82428   0.86294   0.00000  Uiso   1.00
C45    C     0.23319   0.78016   0.86328   0.00000  Uiso   1.00
C46    C     0.24341   0.80091   0.84939   0.00000  Uiso   1.00
C47    C     0.25129   0.79781   0.82328   0.00000  Uiso   1.00
C48    C     0.24838   0.77310   0.81159   0.00000  Uiso   1.00
C49    C     0.23823   0.75202   0.82593   0.00000  Uiso   1.00
C50    C     0.23041   0.75547   0.85189   0.00000  Uiso   1.00
O51    O     0.25632   0.76697   0.78639   0.00000  Uiso   1.00
O52    O     0.23605   0.72777   0.81347   0.00000  Uiso   1.00
H53    H     0.24406   0.64531   0.76125   0.00000  Uiso   1.00
H54    H     0.32404   0.69074   0.79342   0.00000  Uiso   1.00
H55    H     0.25989   0.81402   0.81283   0.00000  Uiso   1.00
H56    H     0.22247   0.73928   0.86301   0.00000  Uiso   1.00
H57    H     0.95171   0.25175   0.07011   0.00000  Uiso   1.00
O58    O     0.25756   0.25756   0.25756   0.00000  Uiso   1.00
Cu59   Cu    0.00000   0.25931   0.00000   0.00000  Uiso   1.00
Cu60   Cu    0.50000   0.79546   0.50000   0.00000  Uiso   1.00
loop_
_geom_bond_atom_site_label_1
_geom_bond_atom_site_label_2
_geom_bond_distance
_geom_bond_site_symmetry_2
_ccdc_geom_bond_type
C1     C2      1.430   .     A
C1     C3      1.424   16_655 A
C1     C4      1.426   16_655 A
C2     C7      1.421   16_655 A
C2     C2      1.425   16_755 A
C3     C1      1.424   16_655 A
C3     C8      1.423   16_655 A
C3     C3      1.432   16    A
C4     C1      1.426   16_655 A
C4     C5      1.393   .     A
C4     H13     1.077   4_566 S
C5     C6      1.361   .     A
C5     O12     1.386   .     S
C6     C7      1.385   .     A
C6     O11     1.378   .     S
C7     C2      1.421   16_655 A
C7     H14     1.075   4_566 S
C8     C3      1.423   16_655 A
C8     C9      1.390   .     A
C8     H57     1.077   .     S
C9     C9      1.362   16_755 A
C9     O10     1.382   16_655 S
O10    Cu59    1.811   .     S
O10    C9      1.382   16_655 S
O11    Cu42    1.805   8_656 S
O12    Cu42    1.816   8_656 S
H13    C4      1.077   4_566 S
H14    C7      1.075   4_566 S
C15    C16     1.432   .     A
C15    C17     1.423   16_655 A
C15    C18     1.421   16_655 A
C16    C16     1.427   16_655 A
C16    C21     1.426   16_655 A
C17    C15     1.423   16_655 A
C17    C17     1.429   16_655 A
C17    C22     1.424   16_655 A
C18    C15     1.421   16_655 A
C18    C19     1.386   .     A
C18    H24     1.077   .     S
C19    C20     1.361   .     A
C19    O29     1.380   .     S
C20    C21     1.392   .     A
C20    O28     1.384   .     S
C21    C16     1.426   16_655 A
C21    H25     1.076   .     S
C22    C17     1.424   16_655 A
C22    C23     1.389   .     A
C22    H26     1.077   .     S
C23    C23     1.361   16_655 A
C23    O27     1.382   16_655 S
O27    Cu60    1.810   .     S
O27    C23     1.382   16_655 S
O28    Cu31    1.814   24_556 S
O29    Cu31    1.808   24_556 S
Fe30   O58     1.937   .     S
Fe30   O40     1.933   12_665 S
Fe30   O41     1.929   12_665 S
Fe30   O51     1.889   4_566 S
Fe30   O52     1.935   12_665 S
Fe30   O51     1.852   12_665 S
Fe30   Fe30    2.806   9     S
Fe30   Fe30    2.806   5     S
Cu31   O28     1.814   18_655 S
Cu31   O29     1.808   18_655 S
Cu31   O32     1.815   .     S
Cu31   O33     1.811   .     S
O32    C34     1.383   .     S
O33    C35     1.379   .     S
C34    C35     1.377   .     A
C34    C36     1.400   .     A
C35    C39     1.397   .     A
C36    C37     1.403   .     A
C36    H53     1.082   .     S
C37    C38     1.399   .     A
C37    O40     1.389   .     S
C38    C39     1.399   .     A
C38    O41     1.386   .     S
C39    H54     1.083   .     S
O40    Fe30    1.933   6_566 S
O41    Fe30    1.929   6_566 S
Cu42   O11     1.805   11_566 S
Cu42   O12     1.816   11_566 S
Cu42   O43     1.808   .     S
Cu42   O44     1.817   .     S
O43    C45     1.377   .     S
O44    C46     1.384   .     S
C45    C46     1.378   .     A
C45    C50     1.396   .     A
C46    C47     1.402   .     A
C47    C48     1.404   .     A
C47    H55     1.079   .     S
C48    C49     1.401   .     A
C48    O51     1.386   .     S
C49    C50     1.396   .     A
C49    O52     1.397   .     S
C50    H56     1.082   .     S
O51    Fe30    1.889   4_566 S
O51    Fe30    1.852   6_566 S
O52    Fe30    1.935   6_566 S
O58    Fe30    1.937   9     S
O58    Fe30    1.937   5     S
Cu59   O10     1.811   14    S
Cu59   O10     1.811   16    S
Cu59   O10     1.811   3     S
Cu60   O27     1.810   14_556 S
Cu60   O27     1.810   16_655 S
Cu60   O27     1.810   3_656 S
