data_cdl-PcMN_O-Zntet
_audit_creation_date              2021-11-06
_audit_creation_method            'Materials Studio'
_symmetry_space_group_name_H-M    'P1'
_symmetry_Int_Tables_number       1
_symmetry_cell_setting            triclinic
loop_
_symmetry_equiv_pos_as_xyz
  x,y,z
_cell_length_a                    22.7687
_cell_length_b                    22.7687
_cell_length_c                    90.5108
_cell_angle_alpha                 89.9636
_cell_angle_beta                  89.9664
_cell_angle_gamma                 89.9984
loop_
_atom_site_label
_atom_site_type_symbol
_atom_site_fract_x
_atom_site_fract_y
_atom_site_fract_z
_atom_site_U_iso_or_equiv
_atom_site_adp_type
_atom_site_occupancy
C1     C     0.00444   0.06512   0.18365   0.00000  Uiso   1.00
C2     C     0.00439   0.03409   0.19715   0.00000  Uiso   1.00
C3     C     0.00439   0.97121   0.19715   0.00000  Uiso   1.00
C4     C     0.00444   0.94027   0.18364   0.00000  Uiso   1.00
C5     C     0.00449   0.97291   0.17060   0.00000  Uiso   1.00
C6     C     0.00449   0.03257   0.17060   0.00000  Uiso   1.00
C7     C     0.00450   0.04968   0.15601   0.00000  Uiso   1.00
N1     N     0.00450   0.00281   0.14672   0.00000  Uiso   1.00
C8     C     0.00450   0.95588   0.15601   0.00000  Uiso   1.00
N2     N     0.00449   0.89963   0.15173   0.00000  Uiso   1.00
C9     C     0.00448   0.88267   0.13758   0.00000  Uiso   1.00
N3     N     0.00446   0.91964   0.12578   0.00000  Uiso   1.00
C10    C     0.00442   0.88273   0.11398   0.00000  Uiso   1.00
C11    C     0.00443   0.82470   0.11827   0.00000  Uiso   1.00
C12    C     0.00447   0.82467   0.13329   0.00000  Uiso   1.00
N4     N     0.00439   0.00292   0.10485   0.00000  Uiso   1.00
C13    C     0.00434   0.95604   0.09555   0.00000  Uiso   1.00
N5     N     0.00435   0.89977   0.09983   0.00000  Uiso   1.00
C14    C     0.00425   0.97315   0.08096   0.00000  Uiso   1.00
C15    C     0.00425   0.03283   0.08096   0.00000  Uiso   1.00
C16    C     0.00434   0.04985   0.09556   0.00000  Uiso   1.00
C17    C     0.00448   0.77282   0.14150   0.00000  Uiso   1.00
C18    C     0.00444   0.71917   0.13371   0.00000  Uiso   1.00
C19    C     0.00439   0.71920   0.11786   0.00000  Uiso   1.00
C20    C     0.00438   0.77290   0.11007   0.00000  Uiso   1.00
C21    C     0.00414   0.06550   0.06793   0.00000  Uiso   1.00
C22    C     0.00400   0.03458   0.05442   0.00000  Uiso   1.00
C23    C     0.00400   0.97157   0.05442   0.00000  Uiso   1.00
C24    C     0.00414   0.94056   0.06792   0.00000  Uiso   1.00
N6     N     0.00445   0.08609   0.12579   0.00000  Uiso   1.00
C25    C     0.00442   0.12306   0.11399   0.00000  Uiso   1.00
N7     N     0.00435   0.10610   0.09983   0.00000  Uiso   1.00
C26    C     0.00442   0.18106   0.11828   0.00000  Uiso   1.00
C27    C     0.00447   0.18102   0.13329   0.00000  Uiso   1.00
C28    C     0.00448   0.12300   0.13758   0.00000  Uiso   1.00
C29    C     0.00447   0.23282   0.14150   0.00000  Uiso   1.00
C30    C     0.00444   0.28652   0.13371   0.00000  Uiso   1.00
C31    C     0.00439   0.28656   0.11786   0.00000  Uiso   1.00
C32    C     0.00438   0.23291   0.11007   0.00000  Uiso   1.00
N8     N     0.00449   0.10595   0.15174   0.00000  Uiso   1.00
H1     H     0.00444   0.11269   0.18332   0.00000  Uiso   1.00
H2     H     0.00444   0.89270   0.18331   0.00000  Uiso   1.00
H3     H     0.00451   0.77408   0.15347   0.00000  Uiso   1.00
H4     H     0.00434   0.77421   0.09810   0.00000  Uiso   1.00
H5     H     0.00413   0.11308   0.06825   0.00000  Uiso   1.00
H6     H     0.00413   0.89298   0.06824   0.00000  Uiso   1.00
H7     H     0.00451   0.23151   0.15347   0.00000  Uiso   1.00
H8     H     0.00434   0.23166   0.09810   0.00000  Uiso   1.00
C33    C     0.00444   0.34021   0.14136   0.00000  Uiso   1.00
C34    C     0.00441   0.39273   0.13338   0.00000  Uiso   1.00
C35    C     0.00436   0.39277   0.11820   0.00000  Uiso   1.00
C36    C     0.00435   0.34029   0.11022   0.00000  Uiso   1.00
C37    C     0.00431   0.06452   0.21063   0.00000  Uiso   1.00
C38    C     0.00424   0.03357   0.22396   0.00000  Uiso   1.00
C39    C     0.00424   0.97155   0.22395   0.00000  Uiso   1.00
C40    C     0.00432   0.94069   0.21062   0.00000  Uiso   1.00
C41    C     0.00445   0.66544   0.14135   0.00000  Uiso   1.00
C42    C     0.00441   0.61296   0.13338   0.00000  Uiso   1.00
C43    C     0.00436   0.61299   0.11819   0.00000  Uiso   1.00
C44    C     0.00435   0.66551   0.11022   0.00000  Uiso   1.00
C45    C     0.00384   0.06501   0.04091   0.00000  Uiso   1.00
C46    C     0.00367   0.03334   0.02770   0.00000  Uiso   1.00
C47    C     0.00367   0.97298   0.02770   0.00000  Uiso   1.00
C48    C     0.00384   0.94123   0.04091   0.00000  Uiso   1.00
H9     H     0.00448   0.34135   0.15333   0.00000  Uiso   1.00
O1     O     0.00441   0.44718   0.14010   0.00000  Uiso   1.00
O2     O     0.00432   0.44725   0.11148   0.00000  Uiso   1.00
H10    H     0.00431   0.34149   0.09825   0.00000  Uiso   1.00
H11    H     0.00431   0.11211   0.21081   0.00000  Uiso   1.00
O3     O     0.00416   0.06363   0.23739   0.00000  Uiso   1.00
O4     O     0.00416   0.94138   0.23738   0.00000  Uiso   1.00
H12    H     0.00431   0.89310   0.21080   0.00000  Uiso   1.00
H13    H     0.00448   0.66424   0.15332   0.00000  Uiso   1.00
O5     O     0.00441   0.55848   0.14010   0.00000  Uiso   1.00
O6     O     0.00433   0.55854   0.11148   0.00000  Uiso   1.00
H14    H     0.00431   0.66436   0.09825   0.00000  Uiso   1.00
H15    H     0.00384   0.11258   0.04062   0.00000  Uiso   1.00
O7     O     0.00348   0.06010   0.01400   0.00000  Uiso   1.00
O8     O     0.00348   0.94632   0.01400   0.00000  Uiso   1.00
H16    H     0.00384   0.89366   0.04061   0.00000  Uiso   1.00
Ni1    Ni    0.00444   0.00286   0.12578   0.00000  Uiso   1.00
C49    C     0.94067   0.00426   0.56792   0.00000  Uiso   1.00
C50    C     0.97168   0.00412   0.55442   0.00000  Uiso   1.00
C51    C     0.03468   0.00412   0.55443   0.00000  Uiso   1.00
C52    C     0.06561   0.00426   0.56793   0.00000  Uiso   1.00
C53    C     0.03294   0.00437   0.58097   0.00000  Uiso   1.00
C54    C     0.97326   0.00437   0.58096   0.00000  Uiso   1.00
C55    C     0.95616   0.00445   0.59556   0.00000  Uiso   1.00
N9     N     0.00303   0.00450   0.60485   0.00000  Uiso   1.00
C56    C     0.04996   0.00445   0.59556   0.00000  Uiso   1.00
N10    N     0.10621   0.00447   0.59984   0.00000  Uiso   1.00
C57    C     0.12318   0.00454   0.61399   0.00000  Uiso   1.00
N11    N     0.08620   0.00458   0.62579   0.00000  Uiso   1.00
C58    C     0.12311   0.00460   0.63759   0.00000  Uiso   1.00
C59    C     0.18113   0.00459   0.63330   0.00000  Uiso   1.00
C60    C     0.18117   0.00454   0.61829   0.00000  Uiso   1.00
N12    N     0.00292   0.00461   0.64672   0.00000  Uiso   1.00
C61    C     0.04980   0.00461   0.65602   0.00000  Uiso   1.00
N13    N     0.10607   0.00461   0.65174   0.00000  Uiso   1.00
C62    C     0.03268   0.00459   0.67061   0.00000  Uiso   1.00
C63    C     0.97302   0.00459   0.67061   0.00000  Uiso   1.00
C64    C     0.95600   0.00461   0.65601   0.00000  Uiso   1.00
C65    C     0.23302   0.00450   0.61008   0.00000  Uiso   1.00
C66    C     0.28667   0.00451   0.61787   0.00000  Uiso   1.00
C67    C     0.28663   0.00455   0.63372   0.00000  Uiso   1.00
C68    C     0.23294   0.00459   0.64151   0.00000  Uiso   1.00
C69    C     0.94038   0.00454   0.68364   0.00000  Uiso   1.00
C70    C     0.97132   0.00447   0.69715   0.00000  Uiso   1.00
C71    C     0.03420   0.00447   0.69716   0.00000  Uiso   1.00
C72    C     0.06523   0.00454   0.68365   0.00000  Uiso   1.00
N14    N     0.91975   0.00458   0.62578   0.00000  Uiso   1.00
C73    C     0.88278   0.00460   0.63758   0.00000  Uiso   1.00
N15    N     0.89975   0.00461   0.65173   0.00000  Uiso   1.00
C74    C     0.82478   0.00459   0.63329   0.00000  Uiso   1.00
C75    C     0.82482   0.00455   0.61828   0.00000  Uiso   1.00
C76    C     0.88284   0.00454   0.61399   0.00000  Uiso   1.00
C77    C     0.77301   0.00450   0.61007   0.00000  Uiso   1.00
C78    C     0.71932   0.00451   0.61786   0.00000  Uiso   1.00
C79    C     0.71929   0.00455   0.63371   0.00000  Uiso   1.00
C80    C     0.77295   0.00459   0.64150   0.00000  Uiso   1.00
N16    N     0.89988   0.00447   0.59983   0.00000  Uiso   1.00
H17    H     0.89309   0.00425   0.56825   0.00000  Uiso   1.00
H18    H     0.11319   0.00425   0.56826   0.00000  Uiso   1.00
H19    H     0.23177   0.00446   0.59811   0.00000  Uiso   1.00
H20    H     0.23162   0.00462   0.65348   0.00000  Uiso   1.00
H21    H     0.89281   0.00454   0.68331   0.00000  Uiso   1.00
H22    H     0.11281   0.00453   0.68333   0.00000  Uiso   1.00
H23    H     0.77431   0.00446   0.59810   0.00000  Uiso   1.00
H24    H     0.77421   0.00462   0.65347   0.00000  Uiso   1.00
C81    C     0.66562   0.00447   0.61022   0.00000  Uiso   1.00
C82    C     0.61311   0.00448   0.61820   0.00000  Uiso   1.00
C83    C     0.61308   0.00452   0.63338   0.00000  Uiso   1.00
C84    C     0.66556   0.00456   0.64136   0.00000  Uiso   1.00
C85    C     0.94133   0.00396   0.54091   0.00000  Uiso   1.00
C86    C     0.97308   0.00378   0.52771   0.00000  Uiso   1.00
C87    C     0.03345   0.00378   0.52771   0.00000  Uiso   1.00
C88    C     0.06512   0.00396   0.54092   0.00000  Uiso   1.00
C89    C     0.34040   0.00447   0.61023   0.00000  Uiso   1.00
C90    C     0.39288   0.00447   0.61821   0.00000  Uiso   1.00
C91    C     0.39284   0.00452   0.63339   0.00000  Uiso   1.00
C92    C     0.34032   0.00456   0.64137   0.00000  Uiso   1.00
C93    C     0.94079   0.00439   0.71062   0.00000  Uiso   1.00
C94    C     0.97164   0.00430   0.72396   0.00000  Uiso   1.00
C95    C     0.03366   0.00430   0.72396   0.00000  Uiso   1.00
C96    C     0.06462   0.00439   0.71063   0.00000  Uiso   1.00
H25    H     0.66447   0.00443   0.59825   0.00000  Uiso   1.00
O9     O     0.55865   0.00444   0.61148   0.00000  Uiso   1.00
O10    O     0.55860   0.00453   0.64011   0.00000  Uiso   1.00
H26    H     0.66437   0.00459   0.65333   0.00000  Uiso   1.00
H27    H     0.89376   0.00395   0.54061   0.00000  Uiso   1.00
O11    O     0.94642   0.00358   0.51400   0.00000  Uiso   1.00
O12    O     0.06020   0.00358   0.51401   0.00000  Uiso   1.00
H28    H     0.11269   0.00395   0.54062   0.00000  Uiso   1.00
H29    H     0.34161   0.00443   0.59826   0.00000  Uiso   1.00
O13    O     0.44736   0.00444   0.61149   0.00000  Uiso   1.00
O14    O     0.44730   0.00452   0.64011   0.00000  Uiso   1.00
H30    H     0.34147   0.00459   0.65333   0.00000  Uiso   1.00
H31    H     0.89320   0.00439   0.71080   0.00000  Uiso   1.00
O15    O     0.94147   0.00420   0.73738   0.00000  Uiso   1.00
O16    O     0.06372   0.00420   0.73739   0.00000  Uiso   1.00
H32    H     0.11221   0.00438   0.71082   0.00000  Uiso   1.00
Ni2    Ni    0.00298   0.00457   0.62579   0.00000  Uiso   1.00
C97    C     0.00207   0.77372   0.85850   0.00000  Uiso   1.00
C98    C     0.00210   0.72002   0.86629   0.00000  Uiso   1.00
C99    C     0.00215   0.71998   0.88214   0.00000  Uiso   1.00
C100   C     0.00216   0.77363   0.88993   0.00000  Uiso   1.00
C101   C     0.00212   0.82548   0.88172   0.00000  Uiso   1.00
C102   C     0.00208   0.82552   0.86671   0.00000  Uiso   1.00
C103   C     0.00206   0.88354   0.86242   0.00000  Uiso   1.00
N17    N     0.00208   0.92044   0.87422   0.00000  Uiso   1.00
C104   C     0.00212   0.88347   0.88602   0.00000  Uiso   1.00
N18    N     0.00218   0.90044   0.90017   0.00000  Uiso   1.00
C105   C     0.00219   0.95668   0.90445   0.00000  Uiso   1.00
N19    N     0.00214   0.00361   0.89516   0.00000  Uiso   1.00
C106   C     0.00219   0.05049   0.90445   0.00000  Uiso   1.00
C107   C     0.00227   0.03338   0.91904   0.00000  Uiso   1.00
C108   C     0.00227   0.97370   0.91904   0.00000  Uiso   1.00
N20    N     0.00208   0.08690   0.87422   0.00000  Uiso   1.00
C109   C     0.00212   0.12381   0.88602   0.00000  Uiso   1.00
N21    N     0.00218   0.10676   0.90018   0.00000  Uiso   1.00
C110   C     0.00212   0.18183   0.88173   0.00000  Uiso   1.00
C111   C     0.00207   0.18187   0.86672   0.00000  Uiso   1.00
C112   C     0.00206   0.12387   0.86243   0.00000  Uiso   1.00
C113   C     0.00239   0.94102   0.93208   0.00000  Uiso   1.00
C114   C     0.00252   0.97195   0.94558   0.00000  Uiso   1.00
C115   C     0.00252   0.03496   0.94558   0.00000  Uiso   1.00
C116   C     0.00239   0.06597   0.93208   0.00000  Uiso   1.00
C117   C     0.00207   0.23371   0.85851   0.00000  Uiso   1.00
C118   C     0.00210   0.28737   0.86630   0.00000  Uiso   1.00
C119   C     0.00215   0.28733   0.88215   0.00000  Uiso   1.00
C120   C     0.00216   0.23364   0.88994   0.00000  Uiso   1.00
N22    N     0.00203   0.00373   0.85329   0.00000  Uiso   1.00
C121   C     0.00203   0.05066   0.84399   0.00000  Uiso   1.00
N23    N     0.00204   0.10691   0.84827   0.00000  Uiso   1.00
C122   C     0.00205   0.03364   0.82940   0.00000  Uiso   1.00
C123   C     0.00205   0.97398   0.82940   0.00000  Uiso   1.00
C124   C     0.00203   0.95686   0.84399   0.00000  Uiso   1.00
C125   C     0.00211   0.94143   0.81636   0.00000  Uiso   1.00
C126   C     0.00218   0.97247   0.80285   0.00000  Uiso   1.00
C127   C     0.00218   0.03535   0.80286   0.00000  Uiso   1.00
C128   C     0.00211   0.06628   0.81637   0.00000  Uiso   1.00
N24    N     0.00204   0.90059   0.84827   0.00000  Uiso   1.00
H33    H     0.00204   0.77503   0.84653   0.00000  Uiso   1.00
H34    H     0.00219   0.77488   0.90190   0.00000  Uiso   1.00
H35    H     0.00240   0.89345   0.93175   0.00000  Uiso   1.00
H36    H     0.00240   0.11355   0.93176   0.00000  Uiso   1.00
H37    H     0.00203   0.23245   0.84654   0.00000  Uiso   1.00
H38    H     0.00219   0.23233   0.90191   0.00000  Uiso   1.00
H39    H     0.00212   0.89386   0.81668   0.00000  Uiso   1.00
H40    H     0.00212   0.11385   0.81669   0.00000  Uiso   1.00
C129   C     0.00228   0.94205   0.78938   0.00000  Uiso   1.00
C130   C     0.00237   0.97301   0.77605   0.00000  Uiso   1.00
C131   C     0.00237   0.03503   0.77605   0.00000  Uiso   1.00
C132   C     0.00227   0.06588   0.78939   0.00000  Uiso   1.00
C133   C     0.00210   0.66633   0.85864   0.00000  Uiso   1.00
C134   C     0.00213   0.61381   0.86662   0.00000  Uiso   1.00
C135   C     0.00217   0.61377   0.88180   0.00000  Uiso   1.00
C136   C     0.00218   0.66625   0.88978   0.00000  Uiso   1.00
C137   C     0.00268   0.94151   0.95909   0.00000  Uiso   1.00
C138   C     0.00284   0.97318   0.97230   0.00000  Uiso   1.00
C139   C     0.00284   0.03354   0.97230   0.00000  Uiso   1.00
C140   C     0.00268   0.06530   0.95910   0.00000  Uiso   1.00
C141   C     0.00209   0.34109   0.85865   0.00000  Uiso   1.00
C142   C     0.00213   0.39357   0.86662   0.00000  Uiso   1.00
C143   C     0.00217   0.39354   0.88181   0.00000  Uiso   1.00
C144   C     0.00218   0.34103   0.88979   0.00000  Uiso   1.00
H41    H     0.00228   0.89446   0.78919   0.00000  Uiso   1.00
O17    O     0.00247   0.94295   0.76262   0.00000  Uiso   1.00
O18    O     0.00247   0.06520   0.76263   0.00000  Uiso   1.00
H42    H     0.00228   0.11347   0.78921   0.00000  Uiso   1.00
H43    H     0.00206   0.66519   0.84668   0.00000  Uiso   1.00
O19    O     0.00212   0.55936   0.85990   0.00000  Uiso   1.00
O20    O     0.00220   0.55929   0.88852   0.00000  Uiso   1.00
H44    H     0.00222   0.66504   0.90175   0.00000  Uiso   1.00
H45    H     0.00268   0.89394   0.95938   0.00000  Uiso   1.00
O21    O     0.00303   0.94642   0.98600   0.00000  Uiso   1.00
O22    O     0.00303   0.06020   0.98601   0.00000  Uiso   1.00
H46    H     0.00269   0.11287   0.95940   0.00000  Uiso   1.00
H47    H     0.00206   0.34229   0.84668   0.00000  Uiso   1.00
O23    O     0.00212   0.44805   0.85990   0.00000  Uiso   1.00
O24    O     0.00220   0.44800   0.88853   0.00000  Uiso   1.00
H48    H     0.00222   0.34218   0.90176   0.00000  Uiso   1.00
Ni3    Ni    0.00207   0.00367   0.87422   0.00000  Uiso   1.00
C145   C     0.94145   0.00212   0.31636   0.00000  Uiso   1.00
C146   C     0.97247   0.00218   0.30285   0.00000  Uiso   1.00
C147   C     0.03535   0.00218   0.30286   0.00000  Uiso   1.00
C148   C     0.06630   0.00212   0.31637   0.00000  Uiso   1.00
C149   C     0.03366   0.00207   0.32940   0.00000  Uiso   1.00
C150   C     0.97400   0.00207   0.32940   0.00000  Uiso   1.00
C151   C     0.95689   0.00206   0.34399   0.00000  Uiso   1.00
N25    N     0.00377   0.00206   0.35329   0.00000  Uiso   1.00
C152   C     0.05069   0.00206   0.34400   0.00000  Uiso   1.00
N26    N     0.10694   0.00207   0.34827   0.00000  Uiso   1.00
C153   C     0.12391   0.00209   0.36243   0.00000  Uiso   1.00
N27    N     0.08694   0.00212   0.37423   0.00000  Uiso   1.00
C154   C     0.12385   0.00216   0.38602   0.00000  Uiso   1.00
C155   C     0.18187   0.00216   0.38173   0.00000  Uiso   1.00
C156   C     0.18191   0.00211   0.36672   0.00000  Uiso   1.00
N28    N     0.00366   0.00218   0.39516   0.00000  Uiso   1.00
C157   C     0.05054   0.00224   0.40445   0.00000  Uiso   1.00
N29    N     0.10681   0.00223   0.40018   0.00000  Uiso   1.00
C158   C     0.03344   0.00233   0.41905   0.00000  Uiso   1.00
C159   C     0.97376   0.00233   0.41905   0.00000  Uiso   1.00
C160   C     0.95673   0.00224   0.40445   0.00000  Uiso   1.00
C161   C     0.23375   0.00210   0.35851   0.00000  Uiso   1.00
C162   C     0.28740   0.00214   0.36630   0.00000  Uiso   1.00
C163   C     0.28737   0.00219   0.38215   0.00000  Uiso   1.00
C164   C     0.23368   0.00220   0.38994   0.00000  Uiso   1.00
C165   C     0.94108   0.00245   0.43208   0.00000  Uiso   1.00
C166   C     0.97202   0.00259   0.44558   0.00000  Uiso   1.00
C167   C     0.03502   0.00259   0.44559   0.00000  Uiso   1.00
C168   C     0.06603   0.00245   0.43209   0.00000  Uiso   1.00
N30    N     0.92049   0.00212   0.37422   0.00000  Uiso   1.00
C169   C     0.88352   0.00217   0.38602   0.00000  Uiso   1.00
N31    N     0.90048   0.00223   0.40017   0.00000  Uiso   1.00
C170   C     0.82552   0.00216   0.38173   0.00000  Uiso   1.00
C171   C     0.82556   0.00211   0.36671   0.00000  Uiso   1.00
C172   C     0.88358   0.00209   0.36242   0.00000  Uiso   1.00
C173   C     0.77375   0.00210   0.35850   0.00000  Uiso   1.00
C174   C     0.72006   0.00214   0.36629   0.00000  Uiso   1.00
C175   C     0.72002   0.00219   0.38214   0.00000  Uiso   1.00
C176   C     0.77367   0.00220   0.38993   0.00000  Uiso   1.00
N32    N     0.90062   0.00207   0.34827   0.00000  Uiso   1.00
H49    H     0.89387   0.00213   0.31668   0.00000  Uiso   1.00
H50    H     0.11387   0.00212   0.31669   0.00000  Uiso   1.00
H51    H     0.23249   0.00207   0.34654   0.00000  Uiso   1.00
H52    H     0.23238   0.00224   0.40191   0.00000  Uiso   1.00
H53    H     0.89351   0.00246   0.43176   0.00000  Uiso   1.00
H54    H     0.11361   0.00246   0.43176   0.00000  Uiso   1.00
H55    H     0.77507   0.00207   0.34654   0.00000  Uiso   1.00
H56    H     0.77492   0.00224   0.40190   0.00000  Uiso   1.00
C177   C     0.66637   0.00213   0.35865   0.00000  Uiso   1.00
C178   C     0.61385   0.00216   0.36662   0.00000  Uiso   1.00
C179   C     0.61381   0.00221   0.38181   0.00000  Uiso   1.00
C180   C     0.66629   0.00223   0.38979   0.00000  Uiso   1.00
C181   C     0.94204   0.00225   0.28938   0.00000  Uiso   1.00
C182   C     0.97299   0.00233   0.27605   0.00000  Uiso   1.00
C183   C     0.03502   0.00232   0.27605   0.00000  Uiso   1.00
C184   C     0.06588   0.00225   0.28939   0.00000  Uiso   1.00
C185   C     0.34113   0.00213   0.35865   0.00000  Uiso   1.00
C186   C     0.39361   0.00216   0.36663   0.00000  Uiso   1.00
C187   C     0.39358   0.00221   0.38181   0.00000  Uiso   1.00
C188   C     0.34107   0.00223   0.38979   0.00000  Uiso   1.00
C189   C     0.94159   0.00275   0.45909   0.00000  Uiso   1.00
C190   C     0.97326   0.00292   0.47230   0.00000  Uiso   1.00
C191   C     0.03362   0.00292   0.47231   0.00000  Uiso   1.00
C192   C     0.06537   0.00275   0.45910   0.00000  Uiso   1.00
H57    H     0.66522   0.00209   0.34668   0.00000  Uiso   1.00
O25    O     0.55939   0.00215   0.35990   0.00000  Uiso   1.00
O26    O     0.55933   0.00224   0.38853   0.00000  Uiso   1.00
H58    H     0.66509   0.00227   0.40175   0.00000  Uiso   1.00
H59    H     0.89445   0.00225   0.28919   0.00000  Uiso   1.00
O27    O     0.94293   0.00240   0.26262   0.00000  Uiso   1.00
O28    O     0.06518   0.00240   0.26263   0.00000  Uiso   1.00
H60    H     0.11347   0.00225   0.28921   0.00000  Uiso   1.00
H61    H     0.34232   0.00209   0.34669   0.00000  Uiso   1.00
O29    O     0.44809   0.00215   0.35991   0.00000  Uiso   1.00
O30    O     0.44804   0.00224   0.38853   0.00000  Uiso   1.00
H62    H     0.34222   0.00226   0.40176   0.00000  Uiso   1.00
H63    H     0.89402   0.00276   0.45939   0.00000  Uiso   1.00
O31    O     0.94651   0.00312   0.48600   0.00000  Uiso   1.00
O32    O     0.06029   0.00312   0.48601   0.00000  Uiso   1.00
H64    H     0.11294   0.00276   0.45940   0.00000  Uiso   1.00
Ni4    Ni    0.00371   0.00211   0.37422   0.00000  Uiso   1.00
Cu1    Cu    0.00436   0.50286   0.12579   0.00000  Uiso   1.00
Cu2    Cu    0.50298   0.00447   0.62580   0.00000  Uiso   1.00
Cu3    Cu    0.00215   0.50367   0.87421   0.00000  Uiso   1.00
Cu4    Cu    0.50371   0.00218   0.37422   0.00000  Uiso   1.00
Cu5    Cu    0.00324   0.00326   1.00000   0.00000  Uiso   1.00
Cu6    Cu    0.00335   0.00334   0.50001   0.00000  Uiso   1.00
Zn1    Zn    0.00410   0.00246   0.25000   0.00000  Uiso   1.00
Zn2    Zn    0.00254   0.00413   0.75000   0.00000  Uiso   1.00
loop_
_geom_bond_atom_site_label_1
_geom_bond_atom_site_label_2
_geom_bond_distance
_geom_bond_site_symmetry_2
_ccdc_geom_bond_type
C1     C2      1.412   .     A
C1     C6      1.394   .     A
C1     H1      1.084   .     S
C2     C3      1.432   1_545 A
C2     C37     1.403   .     A
C3     C2      1.432   1_565 A
C3     C4      1.411   .     A
C3     C40     1.403   .     A
C4     C5      1.394   .     A
C4     H2      1.084   .     S
C5     C6      1.358   1_565 A
C5     C8      1.377   .     A
C6     C5      1.358   1_545 A
C6     C7      1.377   .     A
C7     N1      1.359   .     A
C7     N8      1.338   .     A
N1     C8      1.359   1_545 A
N1     Ni1     1.895   .     S
C8     N1      1.359   1_565 A
C8     N2      1.338   .     A
N2     C9      1.338   .     A
C9     N3      1.359   .     A
C9     C12     1.377   .     A
N3     C10     1.359   .     A
N3     Ni1     1.895   1_565 S
C10    C11     1.377   .     A
C10    N5      1.338   .     A
C11    C12     1.359   .     A
C11    C20     1.394   .     A
C12    C17     1.394   .     A
N4     C13     1.359   1_545 A
N4     C16     1.359   .     A
N4     Ni1     1.895   .     S
C13    N4      1.359   1_565 A
C13    N5      1.338   .     A
C13    C14     1.377   .     A
C14    C15     1.359   1_565 A
C14    C24     1.395   .     A
C15    C14     1.359   1_545 A
C15    C16     1.377   .     A
C15    C21     1.394   .     A
C16    N7      1.338   .     A
C17    C18     1.411   .     A
C17    H3      1.084   .     S
C18    C19     1.435   .     A
C18    C41     1.405   .     A
C19    C20     1.411   .     A
C19    C44     1.405   .     A
C20    H4      1.084   .     S
C21    C22     1.411   .     A
C21    H5      1.084   .     S
C22    C23     1.435   1_545 A
C22    C45     1.405   .     A
C23    C22     1.435   1_565 A
C23    C24     1.411   .     A
C23    C48     1.405   .     A
C24    H6      1.084   .     S
N6     C25     1.359   .     A
N6     C28     1.359   .     A
N6     Ni1     1.895   .     S
C25    N7      1.338   .     A
C25    C26     1.377   .     A
C26    C27     1.359   .     A
C26    C32     1.394   .     A
C27    C28     1.377   .     A
C27    C29     1.394   .     A
C28    N8      1.338   .     A
C29    C30     1.411   .     A
C29    H7      1.084   .     S
C30    C31     1.435   .     A
C30    C33     1.405   .     A
C31    C32     1.411   .     A
C31    C36     1.405   .     A
C32    H8      1.084   .     S
C33    C34     1.396   .     A
C33    H9      1.083   .     S
C34    C35     1.374   .     A
C34    O1      1.381   .     S
C35    C36     1.396   .     A
C35    O2      1.381   .     S
C36    H10     1.083   .     S
C37    C38     1.397   .     A
C37    H11     1.084   .     S
C38    C39     1.412   1_545 A
C38    O3      1.395   .     S
C39    C38     1.412   1_565 A
C39    C40     1.397   .     A
C39    O4      1.395   .     S
C40    H12     1.084   .     S
C41    C42     1.396   .     A
C41    H13     1.083   .     S
C42    C43     1.374   .     A
C42    O5      1.381   .     S
C43    C44     1.396   .     A
C43    O6      1.381   .     S
C44    H14     1.083   .     S
C45    C46     1.396   .     A
C45    H15     1.083   .     S
C46    C47     1.374   1_545 A
C46    O7      1.381   .     S
C47    C46     1.374   1_565 A
C47    C48     1.397   .     A
C47    O8      1.381   .     S
C48    H16     1.083   .     S
O1     Cu1     1.812   .     S
O2     Cu1     1.812   .     S
O3     Zn1     1.800   .     S
O4     Zn1     1.800   1_565 S
O5     Cu1     1.812   .     S
O6     Cu1     1.812   .     S
O7     Cu5     1.812   1_554 S
O8     Cu5     1.812   1_564 S
Ni1    N3      1.895   1_545 S
C49    C50     1.411   .     A
C49    C54     1.394   .     A
C49    H17     1.084   .     S
C50    C51     1.435   1_655 A
C50    C85     1.405   .     A
C51    C50     1.435   1_455 A
C51    C52     1.411   .     A
C51    C88     1.405   .     A
C52    C53     1.394   .     A
C52    H18     1.084   .     S
C53    C54     1.359   1_455 A
C53    C56     1.377   .     A
C54    C53     1.359   1_655 A
C54    C55     1.377   .     A
C55    N9      1.359   1_655 A
C55    N16     1.338   .     A
N9     C55     1.359   1_455 A
N9     C56     1.359   .     A
N9     Ni2     1.895   .     S
C56    N10     1.338   .     A
N10    C57     1.338   .     A
C57    N11     1.359   .     A
C57    C60     1.377   .     A
N11    C58     1.359   .     A
N11    Ni2     1.895   .     S
C58    C59     1.377   .     A
C58    N13     1.338   .     A
C59    C60     1.359   .     A
C59    C68     1.394   .     A
C60    C65     1.394   .     A
N12    C61     1.359   .     A
N12    C64     1.359   1_455 A
N12    Ni2     1.895   .     S
C61    N13     1.338   .     A
C61    C62     1.377   .     A
C62    C63     1.358   1_455 A
C62    C72     1.394   .     A
C63    C62     1.358   1_655 A
C63    C64     1.377   .     A
C63    C69     1.394   .     A
C64    N12     1.359   1_655 A
C64    N15     1.338   .     A
C65    C66     1.411   .     A
C65    H19     1.084   .     S
C66    C67     1.435   .     A
C66    C89     1.405   .     A
C67    C68     1.411   .     A
C67    C92     1.405   .     A
C68    H20     1.084   .     S
C69    C70     1.411   .     A
C69    H21     1.084   .     S
C70    C71     1.432   1_655 A
C70    C93     1.403   .     A
C71    C70     1.432   1_455 A
C71    C72     1.412   .     A
C71    C96     1.403   .     A
C72    H22     1.084   .     S
N14    C73     1.359   .     A
N14    C76     1.359   .     A
N14    Ni2     1.895   1_655 S
C73    N15     1.338   .     A
C73    C74     1.377   .     A
C74    C75     1.359   .     A
C74    C80     1.394   .     A
C75    C76     1.377   .     A
C75    C77     1.394   .     A
C76    N16     1.338   .     A
C77    C78     1.411   .     A
C77    H23     1.084   .     S
C78    C79     1.435   .     A
C78    C81     1.405   .     A
C79    C80     1.411   .     A
C79    C84     1.405   .     A
C80    H24     1.084   .     S
C81    C82     1.396   .     A
C81    H25     1.083   .     S
C82    C83     1.374   .     A
C82    O9      1.381   .     S
C83    C84     1.396   .     A
C83    O10     1.381   .     S
C84    H26     1.083   .     S
C85    C86     1.397   .     A
C85    H27     1.083   .     S
C86    C87     1.374   1_655 A
C86    O11     1.381   .     S
C87    C86     1.374   1_455 A
C87    C88     1.396   .     A
C87    O12     1.381   .     S
C88    H28     1.083   .     S
C89    C90     1.396   .     A
C89    H29     1.083   .     S
C90    C91     1.374   .     A
C90    O13     1.381   .     S
C91    C92     1.396   .     A
C91    O14     1.381   .     S
C92    H30     1.083   .     S
C93    C94     1.397   .     A
C93    H31     1.084   .     S
C94    C95     1.412   1_655 A
C94    O15     1.395   .     S
C95    C94     1.412   1_455 A
C95    C96     1.397   .     A
C95    O16     1.395   .     S
C96    H32     1.084   .     S
O9     Cu2     1.812   .     S
O10    Cu2     1.812   .     S
O11    Cu6     1.812   1_655 S
O12    Cu6     1.812   .     S
O13    Cu2     1.812   .     S
O14    Cu2     1.812   .     S
O15    Zn2     1.800   1_655 S
O16    Zn2     1.800   .     S
Ni2    N14     1.895   1_455 S
C97    C98     1.411   .     A
C97    C102    1.394   .     A
C97    H33     1.084   .     S
C98    C99     1.435   .     A
C98    C133    1.405   .     A
C99    C100    1.411   .     A
C99    C136    1.405   .     A
C100   C101    1.394   .     A
C100   H34     1.084   .     S
C101   C102    1.359   .     A
C101   C104    1.377   .     A
C102   C103    1.377   .     A
C103   N17     1.359   .     A
C103   N24     1.338   .     A
N17    C104    1.359   .     A
N17    Ni3     1.895   1_565 S
C104   N18     1.338   .     A
N18    C105    1.338   .     A
C105   N19     1.359   1_565 A
C105   C108    1.377   .     A
N19    C105    1.359   1_545 A
N19    C106    1.359   .     A
N19    Ni3     1.895   .     S
C106   C107    1.377   .     A
C106   N21     1.338   .     A
C107   C108    1.359   1_545 A
C107   C116    1.394   .     A
C108   C107    1.359   1_565 A
C108   C113    1.394   .     A
N20    C109    1.359   .     A
N20    C112    1.359   .     A
N20    Ni3     1.895   .     S
C109   N21     1.338   .     A
C109   C110    1.377   .     A
C110   C111    1.359   .     A
C110   C120    1.394   .     A
C111   C112    1.377   .     A
C111   C117    1.394   .     A
C112   N23     1.338   .     A
C113   C114    1.411   .     A
C113   H35     1.084   .     S
C114   C115    1.435   1_565 A
C114   C137    1.405   .     A
C115   C114    1.435   1_545 A
C115   C116    1.411   .     A
C115   C140    1.405   .     A
C116   H36     1.084   .     S
C117   C118    1.411   .     A
C117   H37     1.084   .     S
C118   C119    1.435   .     A
C118   C141    1.405   .     A
C119   C120    1.411   .     A
C119   C144    1.405   .     A
C120   H38     1.084   .     S
N22    C121    1.359   .     A
N22    C124    1.359   1_545 A
N22    Ni3     1.895   .     S
C121   N23     1.338   .     A
C121   C122    1.377   .     A
C122   C123    1.358   1_545 A
C122   C128    1.394   .     A
C123   C122    1.358   1_565 A
C123   C124    1.377   .     A
C123   C125    1.394   .     A
C124   N22     1.359   1_565 A
C124   N24     1.338   .     A
C125   C126    1.412   .     A
C125   H39     1.084   .     S
C126   C127    1.432   1_565 A
C126   C129    1.403   .     A
C127   C126    1.432   1_545 A
C127   C128    1.411   .     A
C127   C132    1.403   .     A
C128   H40     1.084   .     S
C129   C130    1.397   .     A
C129   H41     1.084   .     S
C130   C131    1.412   1_565 A
C130   O17     1.395   .     S
C131   C130    1.412   1_545 A
C131   C132    1.397   .     A
C131   O18     1.395   .     S
C132   H42     1.084   .     S
C133   C134    1.396   .     A
C133   H43     1.083   .     S
C134   C135    1.374   .     A
C134   O19     1.381   .     S
C135   C136    1.396   .     A
C135   O20     1.381   .     S
C136   H44     1.083   .     S
C137   C138    1.396   .     A
C137   H45     1.083   .     S
C138   C139    1.374   1_565 A
C138   O21     1.381   .     S
C139   C138    1.374   1_545 A
C139   C140    1.397   .     A
C139   O22     1.381   .     S
C140   H46     1.083   .     S
C141   C142    1.396   .     A
C141   H47     1.083   .     S
C142   C143    1.374   .     A
C142   O23     1.381   .     S
C143   C144    1.396   .     A
C143   O24     1.381   .     S
C144   H48     1.083   .     S
O17    Zn2     1.800   1_565 S
O18    Zn2     1.800   .     S
O19    Cu3     1.812   .     S
O20    Cu3     1.812   .     S
O21    Cu5     1.812   1_565 S
O22    Cu5     1.812   .     S
O23    Cu3     1.812   .     S
O24    Cu3     1.812   .     S
Ni3    N17     1.895   1_545 S
C145   C146    1.412   .     A
C145   C150    1.394   .     A
C145   H49     1.084   .     S
C146   C147    1.432   1_655 A
C146   C181    1.403   .     A
C147   C146    1.432   1_455 A
C147   C148    1.411   .     A
C147   C184    1.403   .     A
C148   C149    1.394   .     A
C148   H50     1.084   .     S
C149   C150    1.358   1_455 A
C149   C152    1.377   .     A
C150   C149    1.358   1_655 A
C150   C151    1.377   .     A
C151   N25     1.359   1_655 A
C151   N32     1.338   .     A
N25    C151    1.359   1_455 A
N25    C152    1.359   .     A
N25    Ni4     1.895   .     S
C152   N26     1.338   .     A
N26    C153    1.338   .     A
C153   N27     1.359   .     A
C153   C156    1.377   .     A
N27    C154    1.359   .     A
N27    Ni4     1.895   .     S
C154   C155    1.377   .     A
C154   N29     1.338   .     A
C155   C156    1.359   .     A
C155   C164    1.394   .     A
C156   C161    1.394   .     A
N28    C157    1.359   .     A
N28    C160    1.359   1_455 A
N28    Ni4     1.895   .     S
C157   N29     1.338   .     A
C157   C158    1.377   .     A
C158   C159    1.359   1_455 A
C158   C168    1.395   .     A
C159   C158    1.359   1_655 A
C159   C160    1.377   .     A
C159   C165    1.394   .     A
C160   N28     1.359   1_655 A
C160   N31     1.338   .     A
C161   C162    1.411   .     A
C161   H51     1.084   .     S
C162   C163    1.435   .     A
C162   C185    1.405   .     A
C163   C164    1.411   .     A
C163   C188    1.405   .     A
C164   H52     1.084   .     S
C165   C166    1.411   .     A
C165   H53     1.084   .     S
C166   C167    1.435   1_655 A
C166   C189    1.405   .     A
C167   C166    1.435   1_455 A
C167   C168    1.411   .     A
C167   C192    1.405   .     A
C168   H54     1.084   .     S
N30    C169    1.359   .     A
N30    C172    1.359   .     A
N30    Ni4     1.895   1_655 S
C169   N31     1.338   .     A
C169   C170    1.377   .     A
C170   C171    1.359   .     A
C170   C176    1.394   .     A
C171   C172    1.377   .     A
C171   C173    1.394   .     A
C172   N32     1.338   .     A
C173   C174    1.411   .     A
C173   H55     1.084   .     S
C174   C175    1.435   .     A
C174   C177    1.405   .     A
C175   C176    1.411   .     A
C175   C180    1.405   .     A
C176   H56     1.084   .     S
C177   C178    1.396   .     A
C177   H57     1.083   .     S
C178   C179    1.374   .     A
C178   O25     1.381   .     S
C179   C180    1.396   .     A
C179   O26     1.381   .     S
C180   H58     1.083   .     S
C181   C182    1.397   .     A
C181   H59     1.084   .     S
C182   C183    1.412   1_655 A
C182   O27     1.395   .     S
C183   C182    1.412   1_455 A
C183   C184    1.397   .     A
C183   O28     1.395   .     S
C184   H60     1.084   .     S
C185   C186    1.396   .     A
C185   H61     1.083   .     S
C186   C187    1.374   .     A
C186   O29     1.381   .     S
C187   C188    1.396   .     A
C187   O30     1.381   .     S
C188   H62     1.083   .     S
C189   C190    1.396   .     A
C189   H63     1.083   .     S
C190   C191    1.374   1_655 A
C190   O31     1.381   .     S
C191   C190    1.374   1_455 A
C191   C192    1.397   .     A
C191   O32     1.381   .     S
C192   H64     1.083   .     S
O25    Cu4     1.812   .     S
O26    Cu4     1.812   .     S
O27    Zn1     1.800   1_655 S
O28    Zn1     1.800   .     S
O29    Cu4     1.812   .     S
O30    Cu4     1.812   .     S
O31    Cu6     1.812   1_655 S
O32    Cu6     1.812   .     S
Ni4    N30     1.895   1_455 S
Cu5    O7      1.812   1_556 S
Cu5    O8      1.812   1_546 S
Cu5    O21     1.812   1_545 S
Cu6    O11     1.812   1_455 S
Cu6    O31     1.812   1_455 S
Zn1    O27     1.800   1_455 S
Zn1    O4      1.800   1_545 S
Zn2    O17     1.800   1_545 S
Zn2    O15     1.800   1_455 S
