data_cdl-PcM_O-Zntet
_audit_creation_date              2021-11-06
_audit_creation_method            'Materials Studio'
_symmetry_space_group_name_H-M    'P1'
_symmetry_Int_Tables_number       1
_symmetry_cell_setting            triclinic
loop_
_symmetry_equiv_pos_as_xyz
  x,y,z
_cell_length_a                    17.9087
_cell_length_b                    17.9087
_cell_length_c                    71.0628
_cell_angle_alpha                 90.0001
_cell_angle_beta                  90.0011
_cell_angle_gamma                 89.9997
loop_
_atom_site_label
_atom_site_type_symbol
_atom_site_fract_x
_atom_site_fract_y
_atom_site_fract_z
_atom_site_U_iso_or_equiv
_atom_site_adp_type
_atom_site_occupancy
C1     C     0.99997   0.92073   0.19975   0.00000  Uiso   1.00
C2     C     0.99999   0.96033   0.21684   0.00000  Uiso   1.00
C3     C     1.00000   0.03998   0.21684   0.00000  Uiso   1.00
C4     C     0.99999   0.07959   0.19975   0.00000  Uiso   1.00
C5     C     0.99997   0.03814   0.18311   0.00000  Uiso   1.00
C6     C     0.99996   0.96218   0.18311   0.00000  Uiso   1.00
C7     C     0.99996   0.94052   0.16453   0.00000  Uiso   1.00
N1     N     0.99997   0.00016   0.15269   0.00000  Uiso   1.00
C8     C     0.99997   0.05981   0.16453   0.00000  Uiso   1.00
N2     N    -0.00001   0.13133   0.15908   0.00000  Uiso   1.00
C9     C     0.00000   0.15296   0.14106   0.00000  Uiso   1.00
N3     N     0.99999   0.10601   0.12602   0.00000  Uiso   1.00
C10    C     1.00000   0.15297   0.11098   0.00000  Uiso   1.00
C11    C     0.00002   0.22671   0.11643   0.00000  Uiso   1.00
C12    C     0.00002   0.22670   0.13561   0.00000  Uiso   1.00
N4     N     0.99998   0.00016   0.09934   0.00000  Uiso   1.00
C13    C     0.99997   0.05985   0.08750   0.00000  Uiso   1.00
N5     N     0.99998   0.13136   0.09295   0.00000  Uiso   1.00
C14    C     0.99996   0.03822   0.06892   0.00000  Uiso   1.00
C15    C    -0.00003   0.96209   0.06892   0.00000  Uiso   1.00
C16    C    -0.00002   0.94047   0.08750   0.00000  Uiso   1.00
C17    C     0.00004   0.29296   0.14603   0.00000  Uiso   1.00
C18    C     0.00006   0.36016   0.13579   0.00000  Uiso   1.00
C19    C     0.00006   0.36016   0.11625   0.00000  Uiso   1.00
C20    C     0.00004   0.29297   0.10601   0.00000  Uiso   1.00
C21    C    -0.00002   0.92076   0.05222   0.00000  Uiso   1.00
C22    C     0.99997   0.96139   0.03529   0.00000  Uiso   1.00
C23    C     0.99995   0.03891   0.03529   0.00000  Uiso   1.00
C24    C     0.99995   0.07955   0.05222   0.00000  Uiso   1.00
N6     N     0.99999   0.89430   0.12602   0.00000  Uiso   1.00
C25    C     0.00001   0.84735   0.11098   0.00000  Uiso   1.00
N7     N     0.00000   0.86896   0.09295   0.00000  Uiso   1.00
C26    C     0.00002   0.77361   0.11643   0.00000  Uiso   1.00
C27    C     1.00001   0.77362   0.13561   0.00000  Uiso   1.00
C28    C     0.99999   0.84736   0.14106   0.00000  Uiso   1.00
C29    C     1.00002   0.70736   0.14603   0.00000  Uiso   1.00
C30    C     0.00004   0.64016   0.13579   0.00000  Uiso   1.00
C31    C     0.00005   0.64016   0.11625   0.00000  Uiso   1.00
C32    C     0.00004   0.70735   0.10601   0.00000  Uiso   1.00
N8     N     0.99997   0.86900   0.15908   0.00000  Uiso   1.00
H1     H     0.99997   0.86029   0.19952   0.00000  Uiso   1.00
O1     O     1.00001   0.92219   0.23395   0.00000  Uiso   1.00
O2     O     1.00002   0.07811   0.23395   0.00000  Uiso   1.00
H2     H    -0.00001   0.14003   0.19952   0.00000  Uiso   1.00
H3     H     0.00004   0.29265   0.16126   0.00000  Uiso   1.00
O3     O     0.00007   0.42946   0.14430   0.00000  Uiso   1.00
O4     O     0.00008   0.42947   0.10775   0.00000  Uiso   1.00
H4     H     0.00005   0.29267   0.09078   0.00000  Uiso   1.00
H5     H    -0.00001   0.86032   0.05230   0.00000  Uiso   1.00
O5     O     0.99997   0.92762   0.01782   0.00000  Uiso   1.00
O6     O     0.99993   0.07265   0.01782   0.00000  Uiso   1.00
H6     H     0.99993   0.13999   0.05229   0.00000  Uiso   1.00
H7     H     1.00001   0.70767   0.16126   0.00000  Uiso   1.00
O7     O     0.00006   0.57086   0.14430   0.00000  Uiso   1.00
O8     O     0.00007   0.57085   0.10775   0.00000  Uiso   1.00
H8     H     0.00005   0.70765   0.09078   0.00000  Uiso   1.00
Ni1    Ni    0.99998   0.00016   0.12601   0.00000  Uiso   1.00
C33    C     0.92066   0.00020   0.69975   0.00000  Uiso   1.00
C34    C     0.96026   0.00017   0.71684   0.00000  Uiso   1.00
C35    C     0.03991   0.00014   0.71684   0.00000  Uiso   1.00
C36    C     0.07952   0.00013   0.69975   0.00000  Uiso   1.00
C37    C     0.03808   0.00015   0.68311   0.00000  Uiso   1.00
C38    C     0.96211   0.00019   0.68311   0.00000  Uiso   1.00
C39    C     0.94046   0.00018   0.66453   0.00000  Uiso   1.00
N9     N     0.00010   0.00015   0.65269   0.00000  Uiso   1.00
C40    C     0.05974   0.00013   0.66453   0.00000  Uiso   1.00
N10    N     0.13126   0.00010   0.65908   0.00000  Uiso   1.00
C41    C     0.15290   0.00008   0.64106   0.00000  Uiso   1.00
N11    N     0.10596   0.00009   0.62602   0.00000  Uiso   1.00
C42    C     0.15291   0.00007   0.61098   0.00000  Uiso   1.00
C43    C     0.22665   0.00004   0.61643   0.00000  Uiso   1.00
C44    C     0.22664   0.00005   0.63561   0.00000  Uiso   1.00
N12    N     0.00010   0.00011   0.59934   0.00000  Uiso   1.00
C45    C     0.05979   0.00010   0.58750   0.00000  Uiso   1.00
N13    N     0.13130   0.00008   0.59295   0.00000  Uiso   1.00
C46    C     0.03817   0.00010   0.56892   0.00000  Uiso   1.00
C47    C     0.96204   0.00010   0.56892   0.00000  Uiso   1.00
C48    C     0.94042   0.00011   0.58750   0.00000  Uiso   1.00
C49    C     0.29290   1.00003   0.64603   0.00000  Uiso   1.00
C50    C     0.36010   1.00000   0.63579   0.00000  Uiso   1.00
C51    C     0.36010  -0.00001   0.61626   0.00000  Uiso   1.00
C52    C     0.29291   0.00001   0.60601   0.00000  Uiso   1.00
C53    C     0.92072   0.00010   0.55222   0.00000  Uiso   1.00
C54    C     0.96135   0.00009   0.53529   0.00000  Uiso   1.00
C55    C     0.03887   0.00009   0.53529   0.00000  Uiso   1.00
C56    C     0.07950   0.00010   0.55222   0.00000  Uiso   1.00
N14    N     0.89425   0.00013   0.62602   0.00000  Uiso   1.00
C57    C     0.84729   0.00011   0.61097   0.00000  Uiso   1.00
N15    N     0.86891   1.00010   0.59295   0.00000  Uiso   1.00
C58    C     0.77355   0.00010   0.61643   0.00000  Uiso   1.00
C59    C     0.77356   0.00012   0.63561   0.00000  Uiso   1.00
C60    C     0.84730   0.00015   0.64106   0.00000  Uiso   1.00
C61    C     0.70731   0.00011   0.64603   0.00000  Uiso   1.00
C62    C     0.64011   0.00006   0.63579   0.00000  Uiso   1.00
C63    C     0.64010   1.00004   0.61625   0.00000  Uiso   1.00
C64    C     0.70729   1.00006   0.60601   0.00000  Uiso   1.00
N16    N     0.86894   0.00017   0.65908   0.00000  Uiso   1.00
H9     H     0.86022   0.00022   0.69952   0.00000  Uiso   1.00
O9     O     0.92212   0.00018   0.73395   0.00000  Uiso   1.00
O10    O     0.07804   0.00011   0.73396   0.00000  Uiso   1.00
H10    H     0.13996   0.00010   0.69953   0.00000  Uiso   1.00
H11    H     0.29260   1.00004   0.66126   0.00000  Uiso   1.00
O11    O     0.42941   0.99999   0.64430   0.00000  Uiso   1.00
O12    O     0.42941   0.99996   0.60775   0.00000  Uiso   1.00
H12    H     0.29261   0.00001   0.59078   0.00000  Uiso   1.00
H13    H     0.86027   0.00010   0.55230   0.00000  Uiso   1.00
O13    O     0.92760   0.00009   0.51782   0.00000  Uiso   1.00
O14    O     0.07263   0.00009   0.51782   0.00000  Uiso   1.00
H14    H     0.13994   0.00009   0.55230   0.00000  Uiso   1.00
H15    H     0.70761   0.00012   0.66126   0.00000  Uiso   1.00
O15    O     0.57080   0.00003   0.64430   0.00000  Uiso   1.00
O16    O     0.57079   1.00000   0.60775   0.00000  Uiso   1.00
H16    H     0.70759   1.00004   0.59078   0.00000  Uiso   1.00
Ni2    Ni    0.00010   0.00012   0.62601   0.00000  Uiso   1.00
C65    C     0.00008   0.70729   0.89400   0.00000  Uiso   1.00
C66    C     0.00008   0.64010   0.88376   0.00000  Uiso   1.00
C67    C     0.00008   0.64011   0.86422   0.00000  Uiso   1.00
C68    C     0.00007   0.70730   0.85398   0.00000  Uiso   1.00
C69    C     0.00006   0.77356   0.86440   0.00000  Uiso   1.00
C70    C     0.00007   0.77355   0.88358   0.00000  Uiso   1.00
C71    C     0.00006   0.84729   0.88903   0.00000  Uiso   1.00
N17    N     0.00004   0.89425   0.87399   0.00000  Uiso   1.00
C72    C     0.00004   0.84731   0.85895   0.00000  Uiso   1.00
N18    N     1.00002   0.86894   0.84093   0.00000  Uiso   1.00
C73    C     1.00002   0.94046   0.83548   0.00000  Uiso   1.00
N19    N     0.00003   0.00010   0.84732   0.00000  Uiso   1.00
C74    C     0.00005   0.05975   0.83548   0.00000  Uiso   1.00
C75    C     0.00005   0.03809   0.81690   0.00000  Uiso   1.00
C76    C     1.00002   0.96212   0.81690   0.00000  Uiso   1.00
N20    N     0.00005   0.10596   0.87399   0.00000  Uiso   1.00
C77    C     0.00007   0.15290   0.85895   0.00000  Uiso   1.00
N21    N     0.00007   0.13127   0.84093   0.00000  Uiso   1.00
C78    C     0.00007   0.22664   0.86440   0.00000  Uiso   1.00
C79    C     0.00006   0.22665   0.88358   0.00000  Uiso   1.00
C80    C     0.00004   0.15291   0.88903   0.00000  Uiso   1.00
C81    C     1.00001   0.92068   0.80026   0.00000  Uiso   1.00
C82    C     1.00003   0.96029   0.78317   0.00000  Uiso   1.00
C83    C     1.00007   0.03994   0.78317   0.00000  Uiso   1.00
C84    C     0.00007   0.07954   0.80026   0.00000  Uiso   1.00
C85    C     0.00006   0.29291   0.89400   0.00000  Uiso   1.00
C86    C     0.00008   0.36010   0.88376   0.00000  Uiso   1.00
C87    C     0.00009   0.36010   0.86422   0.00000  Uiso   1.00
C88    C     0.00009   0.29290   0.85398   0.00000  Uiso   1.00
N22    N     0.00002   0.00010   0.90067   0.00000  Uiso   1.00
C89    C     1.00000   0.05979   0.91250   0.00000  Uiso   1.00
N23    N     1.00001   0.13130   0.90706   0.00000  Uiso   1.00
C90    C     0.99999   0.03817   0.93109   0.00000  Uiso   1.00
C91    C     0.00001   0.96204   0.93109   0.00000  Uiso   1.00
C92    C     0.00003   0.94042   0.91251   0.00000  Uiso   1.00
C93    C     0.00001   0.92072   0.94779   0.00000  Uiso   1.00
C94    C     0.99998   0.96135   0.96472   0.00000  Uiso   1.00
C95    C     0.99996   0.03888   0.96472   0.00000  Uiso   1.00
C96    C     0.99997   0.07950   0.94779   0.00000  Uiso   1.00
N24    N     0.00005   0.86891   0.90706   0.00000  Uiso   1.00
H17    H     0.00008   0.70759   0.90923   0.00000  Uiso   1.00
O17    O     0.00009   0.57079   0.89226   0.00000  Uiso   1.00
O18    O     0.00009   0.57080   0.85571   0.00000  Uiso   1.00
H18    H     0.00006   0.70761   0.83875   0.00000  Uiso   1.00
H19    H     0.99999   0.86024   0.80048   0.00000  Uiso   1.00
O19    O     1.00003   0.92217   0.76605   0.00000  Uiso   1.00
O20    O     1.00010   0.07808   0.76606   0.00000  Uiso   1.00
H20    H     0.00010   0.13998   0.80049   0.00000  Uiso   1.00
H21    H     1.00005   0.29261   0.90923   0.00000  Uiso   1.00
O21    O     0.00008   0.42941   0.89226   0.00000  Uiso   1.00
O22    O     0.00009   0.42940   0.85571   0.00000  Uiso   1.00
H22    H     0.00010   0.29259   0.83875   0.00000  Uiso   1.00
H23    H     0.00002   0.86028   0.94771   0.00000  Uiso   1.00
O23    O     0.99997   0.92761   0.98219   0.00000  Uiso   1.00
O24    O     0.99994   0.07264   0.98219   0.00000  Uiso   1.00
H24    H     0.99995   0.13994   0.94771   0.00000  Uiso   1.00
Ni3    Ni    0.00003   0.00010   0.87400   0.00000  Uiso   1.00
C97    C     0.92072   0.00008   0.44779   0.00000  Uiso   1.00
C98    C     0.96135   0.00009   0.46472   0.00000  Uiso   1.00
C99    C     0.03887   0.00008   0.46472   0.00000  Uiso   1.00
C100   C     0.07950   0.00008   0.44779   0.00000  Uiso   1.00
C101   C     0.03817   0.00007   0.43109   0.00000  Uiso   1.00
C102   C     0.96204   0.00007   0.43109   0.00000  Uiso   1.00
C103   C     0.94042   0.00006   0.41250   0.00000  Uiso   1.00
N25    N     0.00010   0.00005   0.40067   0.00000  Uiso   1.00
C104   C     0.05979   0.00006   0.41250   0.00000  Uiso   1.00
N26    N     0.13130   1.00005   0.40705   0.00000  Uiso   1.00
C105   C     0.15291   1.00004   0.38903   0.00000  Uiso   1.00
N27    N     0.10595   0.00004   0.37399   0.00000  Uiso   1.00
C106   C     0.15289   0.00003   0.35895   0.00000  Uiso   1.00
C107   C     0.22664   0.00002   0.36439   0.00000  Uiso   1.00
C108   C     0.22664   1.00002   0.38358   0.00000  Uiso   1.00
N28    N     0.00009   0.00004   0.34732   0.00000  Uiso   1.00
C109   C     0.05973   0.00005   0.33548   0.00000  Uiso   1.00
N29    N     0.13126   0.00004   0.34093   0.00000  Uiso   1.00
C110   C     0.03807   0.00007   0.31689   0.00000  Uiso   1.00
C111   C     0.96210   0.00007   0.31690   0.00000  Uiso   1.00
C112   C     0.94045   0.00005   0.33548   0.00000  Uiso   1.00
C113   C     0.29291   1.00000   0.39399   0.00000  Uiso   1.00
C114   C     0.36010   0.99998   0.38375   0.00000  Uiso   1.00
C115   C     0.36009   0.99997   0.36422   0.00000  Uiso   1.00
C116   C     0.29289  -0.00001   0.35398   0.00000  Uiso   1.00
C117   C     0.92065   0.00009   0.30026   0.00000  Uiso   1.00
C118   C     0.96023   0.00011   0.28317   0.00000  Uiso   1.00
C119   C     0.03989   0.00011   0.28317   0.00000  Uiso   1.00
C120   C     0.07950   0.00009   0.30026   0.00000  Uiso   1.00
N30    N     0.89424   0.00005   0.37399   0.00000  Uiso   1.00
C121   C     0.84730   1.00004   0.35895   0.00000  Uiso   1.00
N31    N     0.86893   1.00004   0.34093   0.00000  Uiso   1.00
C122   C     0.77356   1.00002   0.36440   0.00000  Uiso   1.00
C123   C     0.77355   0.00002   0.38358   0.00000  Uiso   1.00
C124   C     0.84729   0.00004   0.38903   0.00000  Uiso   1.00
C125   C     0.70729   0.00000   0.39400   0.00000  Uiso   1.00
C126   C     0.64010  -0.00002   0.38375   0.00000  Uiso   1.00
C127   C     0.64010   0.99998   0.36422   0.00000  Uiso   1.00
C128   C     0.70730   1.00000   0.35398   0.00000  Uiso   1.00
N32    N     0.86891   0.00005   0.40706   0.00000  Uiso   1.00
H25    H     0.86028   0.00008   0.44771   0.00000  Uiso   1.00
O25    O     0.92760   0.00009   0.48219   0.00000  Uiso   1.00
O26    O     0.07263   0.00009   0.48219   0.00000  Uiso   1.00
H26    H     0.13995   0.00008   0.44771   0.00000  Uiso   1.00
H27    H     0.29261   1.00000   0.40923   0.00000  Uiso   1.00
O27    O     0.42940   0.99995   0.39226   0.00000  Uiso   1.00
O28    O     0.42940   0.99995   0.35571   0.00000  Uiso   1.00
H28    H     0.29259  -0.00001   0.33875   0.00000  Uiso   1.00
H29    H     0.86020   1.00009   0.30049   0.00000  Uiso   1.00
O29    O     0.92209   0.00014   0.26606   0.00000  Uiso   1.00
O30    O     0.07801   0.00013   0.26605   0.00000  Uiso   1.00
H30    H     0.13995   0.00009   0.30048   0.00000  Uiso   1.00
H31    H     0.70759   0.00000   0.40923   0.00000  Uiso   1.00
O31    O     0.57079   0.99995   0.39226   0.00000  Uiso   1.00
O32    O     0.57079   0.99995   0.35571   0.00000  Uiso   1.00
H32    H     0.70760   0.99999   0.33875   0.00000  Uiso   1.00
Ni4    Ni    0.00009   0.00003   0.37399   0.00000  Uiso   1.00
Cu1    Cu    0.00005   0.50016   0.12602   0.00000  Uiso   1.00
Cu2    Cu    0.50010   0.99998   0.62602   0.00000  Uiso   1.00
Cu3    Cu    0.00007   0.50010   0.87399   0.00000  Uiso   1.00
Cu4    Cu    0.50010   0.99993   0.37398   0.00000  Uiso   1.00
Cu5    Cu    0.99994   0.00013   0.00000   0.00000  Uiso   1.00
Cu6    Cu    0.00011   0.00007   0.50000   0.00000  Uiso   1.00
Zn1    Zn    1.00004   0.00014   0.25000   0.00000  Uiso   1.00
Zn2    Zn    1.00007   0.00013   0.75000   0.00000  Uiso   1.00
loop_
_geom_bond_atom_site_label_1
_geom_bond_atom_site_label_2
_geom_bond_distance
_geom_bond_site_symmetry_2
_ccdc_geom_bond_type
C1     C2      1.406   .     A
C1     C6      1.396   .     A
C1     H1      1.083   .     S
C2     C3      1.427   1_565 A
C2     O1      1.395   .     S
C3     C2      1.427   1_545 A
C3     C4      1.406   .     A
C3     O2      1.395   .     S
C4     C5      1.396   .     A
C4     H2      1.083   1_655 S
C5     C6      1.360   1_545 A
C5     C8      1.377   .     A
C6     C5      1.360   1_565 A
C6     C7      1.377   .     A
C7     N1      1.360   1_565 A
C7     N8      1.338   .     A
N1     C7      1.360   1_545 A
N1     C8      1.360   .     A
N1     Ni1     1.896   .     S
C8     N2      1.338   1_655 A
N2     C8      1.338   1_455 A
N2     C9      1.338   .     A
C9     N3      1.360   1_455 A
C9     C12     1.376   .     A
N3     C9      1.360   1_655 A
N3     C10     1.360   .     A
N3     Ni1     1.896   .     S
C10    C11     1.376   1_655 A
C10    N5      1.338   .     A
C11    C10     1.376   1_455 A
C11    C12     1.363   .     A
C11    C20     1.399   .     A
C12    C17     1.399   .     A
N4     C13     1.360   .     A
N4     C16     1.360   1_645 A
N4     Ni1     1.896   .     S
C13    N5      1.338   .     A
C13    C14     1.376   .     A
C14    C15     1.363   1_645 A
C14    C24     1.399   .     A
C15    C14     1.363   1_465 A
C15    C16     1.376   .     A
C15    C21     1.399   .     A
C16    N4      1.360   1_465 A
C16    N7      1.338   .     A
C17    C18     1.406   .     A
C17    H3      1.082   .     S
C18    C19     1.388   .     A
C18    O3      1.381   .     S
C19    C20     1.406   .     A
C19    O4      1.381   .     S
C20    H4      1.082   .     S
C21    C22     1.406   1_455 A
C21    H5      1.082   .     S
C22    C21     1.406   1_655 A
C22    C23     1.388   1_565 A
C22    O5      1.381   .     S
C23    C22     1.388   1_545 A
C23    C24     1.406   .     A
C23    O6      1.381   .     S
C24    H6      1.082   .     S
N6     C25     1.360   1_655 A
N6     C28     1.360   .     A
N6     Ni1     1.896   1_565 S
C25    N6      1.360   1_455 A
C25    N7      1.338   .     A
C25    C26     1.376   .     A
C26    C27     1.363   1_455 A
C26    C32     1.399   .     A
C27    C26     1.363   1_655 A
C27    C28     1.376   .     A
C27    C29     1.399   .     A
C28    N8      1.338   .     A
C29    C30     1.406   1_655 A
C29    H7      1.082   .     S
C30    C29     1.406   1_455 A
C30    C31     1.388   .     A
C30    O7      1.381   .     S
C31    C32     1.406   .     A
C31    O8      1.381   .     S
C32    H8      1.082   .     S
O1     Zn1     1.803   1_565 S
O2     Zn1     1.803   .     S
H2     C4      1.083   1_455 S
O3     Cu1     1.814   .     S
O4     Cu1     1.814   .     S
O5     Cu5     1.814   1_565 S
O6     Cu5     1.814   .     S
O7     Cu1     1.814   .     S
O8     Cu1     1.814   .     S
Ni1    N6      1.896   1_545 S
C33    C34     1.406   .     A
C33    C38     1.396   .     A
C33    H9      1.083   .     S
C34    C35     1.427   1_655 A
C34    O9      1.395   .     S
C35    C34     1.427   1_455 A
C35    C36     1.406   .     A
C35    O10     1.395   .     S
C36    C37     1.396   .     A
C36    H10     1.083   .     S
C37    C38     1.360   1_455 A
C37    C40     1.377   .     A
C38    C37     1.360   1_655 A
C38    C39     1.377   .     A
C39    N9      1.360   1_655 A
C39    N16     1.338   .     A
N9     C39     1.360   1_455 A
N9     C40     1.360   .     A
N9     Ni2     1.896   .     S
C40    N10     1.338   .     A
N10    C41     1.338   .     A
C41    N11     1.360   .     A
C41    C44     1.376   .     A
N11    C42     1.360   .     A
N11    Ni2     1.896   .     S
C42    C43     1.376   .     A
C42    N13     1.338   .     A
C43    C44     1.363   .     A
C43    C52     1.399   .     A
C44    C49     1.399   1_545 A
N12    C45     1.360   .     A
N12    C48     1.360   1_455 A
N12    Ni2     1.896   .     S
C45    N13     1.338   .     A
C45    C46     1.376   .     A
C46    C47     1.363   1_455 A
C46    C56     1.399   .     A
C47    C46     1.363   1_655 A
C47    C48     1.376   .     A
C47    C53     1.399   .     A
C48    N12     1.360   1_655 A
C48    N15     1.338   1_545 A
C49    C44     1.399   1_565 A
C49    C50     1.406   .     A
C49    H11     1.082   .     S
C50    C51     1.388   1_565 A
C50    O11     1.381   .     S
C51    C50     1.388   1_545 A
C51    C52     1.406   .     A
C51    O12     1.381   1_545 S
C52    H12     1.082   .     S
C53    C54     1.406   .     A
C53    H13     1.082   .     S
C54    C55     1.388   1_655 A
C54    O13     1.381   .     S
C55    C54     1.388   1_455 A
C55    C56     1.406   .     A
C55    O14     1.381   .     S
C56    H14     1.082   .     S
N14    C57     1.360   .     A
N14    C60     1.360   .     A
N14    Ni2     1.896   1_655 S
C57    N15     1.338   1_545 A
C57    C58     1.376   .     A
N15    C57     1.338   1_565 A
N15    C48     1.338   1_565 A
C58    C59     1.363   .     A
C58    C64     1.399   1_545 A
C59    C60     1.376   .     A
C59    C61     1.399   .     A
C60    N16     1.338   .     A
C61    C62     1.406   .     A
C61    H15     1.082   .     S
C62    C63     1.388   1_545 A
C62    O15     1.381   .     S
C63    C62     1.388   1_565 A
C63    C64     1.406   .     A
C63    O16     1.381   .     S
C64    C58     1.399   1_565 A
C64    H16     1.082   .     S
O9     Zn2     1.803   .     S
O10    Zn2     1.803   1_455 S
O11    Cu2     1.814   .     S
O12    C51     1.381   1_565 S
O12    Cu2     1.814   .     S
O13    Cu6     1.814   1_655 S
O14    Cu6     1.814   .     S
O15    Cu2     1.814   1_545 S
O16    Cu2     1.814   .     S
Ni2    N14     1.896   1_455 S
C65    C66     1.406   .     A
C65    C70     1.399   .     A
C65    H17     1.082   .     S
C66    C67     1.388   .     A
C66    O17     1.381   .     S
C67    C68     1.406   .     A
C67    O18     1.381   .     S
C68    C69     1.399   .     A
C68    H18     1.082   .     S
C69    C70     1.363   .     A
C69    C72     1.376   .     A
C70    C71     1.376   .     A
C71    N17     1.360   .     A
C71    N24     1.338   .     A
N17    C72     1.360   .     A
N17    Ni3     1.896   1_565 S
C72    N18     1.338   1_455 A
N18    C72     1.338   1_655 A
N18    C73     1.338   .     A
C73    N19     1.360   1_665 A
C73    C76     1.377   .     A
N19    C73     1.360   1_445 A
N19    C74     1.360   .     A
N19    Ni3     1.896   .     S
C74    C75     1.377   .     A
C74    N21     1.338   .     A
C75    C76     1.360   1_445 A
C75    C84     1.396   .     A
C76    C75     1.360   1_665 A
C76    C81     1.396   .     A
N20    C77     1.360   .     A
N20    C80     1.360   .     A
N20    Ni3     1.896   .     S
C77    N21     1.338   .     A
C77    C78     1.376   .     A
C78    C79     1.363   .     A
C78    C88     1.399   .     A
C79    C80     1.376   .     A
C79    C85     1.399   .     A
C80    N23     1.338   1_455 A
C81    C82     1.406   .     A
C81    H19     1.083   .     S
C82    C83     1.427   1_565 A
C82    O19     1.395   .     S
C83    C82     1.427   1_545 A
C83    C84     1.406   1_655 A
C83    O20     1.395   .     S
C84    C83     1.406   1_455 A
C84    H20     1.083   .     S
C85    C86     1.406   .     A
C85    H21     1.082   1_455 S
C86    C87     1.388   .     A
C86    O21     1.381   .     S
C87    C88     1.406   .     A
C87    O22     1.381   .     S
C88    H22     1.082   .     S
N22    C89     1.360   1_455 A
N22    C92     1.360   1_545 A
N22    Ni3     1.896   .     S
C89    N22     1.360   1_655 A
C89    N23     1.338   .     A
C89    C90     1.376   .     A
N23    C80     1.338   1_655 A
C90    C91     1.363   1_645 A
C90    C96     1.399   .     A
C91    C90     1.363   1_465 A
C91    C92     1.376   .     A
C91    C93     1.399   .     A
C92    N22     1.360   1_565 A
C92    N24     1.338   .     A
C93    C94     1.406   1_455 A
C93    H23     1.082   .     S
C94    C93     1.406   1_655 A
C94    C95     1.388   1_565 A
C94    O23     1.381   .     S
C95    C94     1.388   1_545 A
C95    C96     1.406   .     A
C95    O24     1.381   .     S
C96    H24     1.082   .     S
O17    Cu3     1.814   .     S
O18    Cu3     1.814   .     S
O19    Zn2     1.803   1_565 S
O20    Zn2     1.803   .     S
H21    C85     1.082   1_655 S
O21    Cu3     1.814   .     S
O22    Cu3     1.814   .     S
O23    Cu5     1.814   1_566 S
O24    Cu5     1.814   1_556 S
Ni3    N17     1.896   1_545 S
C97    C98     1.406   .     A
C97    C102    1.399   .     A
C97    H25     1.082   .     S
C98    C99     1.388   1_655 A
C98    O25     1.381   .     S
C99    C98     1.388   1_455 A
C99    C100    1.406   .     A
C99    O26     1.381   .     S
C100   C101    1.399   .     A
C100   H26     1.082   .     S
C101   C102    1.363   1_455 A
C101   C104    1.376   .     A
C102   C101    1.363   1_655 A
C102   C103    1.376   .     A
C103   N25     1.360   1_655 A
C103   N32     1.338   .     A
N25    C103    1.360   1_455 A
N25    C104    1.360   .     A
N25    Ni4     1.896   .     S
C104   N26     1.338   1_545 A
N26    C104    1.338   1_565 A
N26    C105    1.338   .     A
C105   N27     1.360   1_565 A
C105   C108    1.376   .     A
N27    C105    1.360   1_545 A
N27    C106    1.360   .     A
N27    Ni4     1.896   .     S
C106   C107    1.376   .     A
C106   N29     1.338   .     A
C107   C108    1.363   1_545 A
C107   C116    1.399   .     A
C108   C107    1.363   1_565 A
C108   C113    1.399   .     A
N28    C109    1.360   .     A
N28    C112    1.360   1_455 A
N28    Ni4     1.896   .     S
C109   N29     1.338   .     A
C109   C110    1.377   .     A
C110   C111    1.360   1_455 A
C110   C120    1.396   .     A
C111   C110    1.360   1_655 A
C111   C112    1.377   .     A
C111   C117    1.396   .     A
C112   N28     1.360   1_655 A
C112   N31     1.338   1_545 A
C113   C114    1.406   .     A
C113   H27     1.082   .     S
C114   C115    1.388   .     A
C114   O27     1.381   .     S
C115   C116    1.406   1_565 A
C115   O28     1.381   .     S
C116   C115    1.406   1_545 A
C116   H28     1.082   .     S
C117   C118    1.406   .     A
C117   H29     1.083   1_545 S
C118   C119    1.427   1_655 A
C118   O29     1.395   .     S
C119   C118    1.427   1_455 A
C119   C120    1.406   .     A
C119   O30     1.395   .     S
C120   H30     1.083   .     S
N30    C121    1.360   1_545 A
N30    C124    1.360   .     A
N30    Ni4     1.896   1_655 S
C121   N30     1.360   1_565 A
C121   N31     1.338   .     A
C121   C122    1.376   .     A
N31    C112    1.338   1_565 A
C122   C123    1.363   1_565 A
C122   C128    1.399   .     A
C123   C122    1.363   1_545 A
C123   C124    1.376   .     A
C123   C125    1.399   .     A
C124   N32     1.338   .     A
C125   C126    1.406   .     A
C125   H31     1.082   .     S
C126   C127    1.388   1_545 A
C126   O31     1.381   1_545 S
C127   C126    1.388   1_565 A
C127   C128    1.406   .     A
C127   O32     1.381   .     S
C128   H32     1.082   .     S
O25    Cu6     1.814   1_655 S
O26    Cu6     1.814   .     S
O27    Cu4     1.814   .     S
O28    Cu4     1.814   .     S
H29    C117    1.083   1_565 S
O29    Zn1     1.803   .     S
O30    Zn1     1.803   1_455 S
O31    C126    1.381   1_565 S
O31    Cu4     1.814   .     S
O32    Cu4     1.814   .     S
Ni4    N30     1.896   1_455 S
Cu2    O15     1.814   1_565 S
Cu5    O5      1.814   1_545 S
Cu5    O24     1.814   1_554 S
Cu5    O23     1.814   1_544 S
Cu6    O25     1.814   1_455 S
Cu6    O13     1.814   1_455 S
Zn1    O1      1.803   1_545 S
Zn1    O30     1.803   1_655 S
Zn2    O10     1.803   1_655 S
Zn2    O19     1.803   1_545 S
