data_cds-b-PcMN_O-Zntet
_audit_creation_date              2021-11-06
_audit_creation_method            'Materials Studio'
_symmetry_space_group_name_H-M    'P1'
_symmetry_Int_Tables_number       1
_symmetry_cell_setting            triclinic
loop_
_symmetry_equiv_pos_as_xyz
  x,y,z
_cell_length_a                    32.1998
_cell_length_b                    32.2000
_cell_length_c                    44.9726
_cell_angle_alpha                 90.0004
_cell_angle_beta                  90.0395
_cell_angle_gamma                 90.0000
loop_
_atom_site_label
_atom_site_type_symbol
_atom_site_fract_x
_atom_site_fract_y
_atom_site_fract_z
_atom_site_U_iso_or_equiv
_atom_site_adp_type
_atom_site_occupancy
C1     C     0.11524   0.11518   0.03286   0.00000  Uiso   1.00
C2     C     0.14207   0.14200   0.01718   0.00000  Uiso   1.00
C3     C     0.14207   0.14197   0.98528   0.00000  Uiso   1.00
C4     C     0.11524   0.11512   0.96960   0.00000  Uiso   1.00
C5     C     0.08932   0.08923   0.98612   0.00000  Uiso   1.00
C6     C     0.08932   0.08925   0.01633   0.00000  Uiso   1.00
C7     C     0.06032   0.06026   0.02497   0.00000  Uiso   1.00
N1     N     0.04185   0.04176   0.00122   0.00000  Uiso   1.00
C8     C     0.06032   0.06021   0.97748   0.00000  Uiso   1.00
N2     N     0.05182   0.05168   0.94899   0.00000  Uiso   1.00
C9     C     0.02370   0.02353   0.94039   0.00000  Uiso   1.00
N3     N     0.00025   0.00010   0.95909   0.00000  Uiso   1.00
C10    C     0.97680   0.97663   0.94039   0.00000  Uiso   1.00
C11    C     0.98534   0.98513   0.91102   0.00000  Uiso   1.00
C12    C     0.01517   0.01496   0.91102   0.00000  Uiso   1.00
N4     N     0.95862   0.95854   0.00122   0.00000  Uiso   1.00
C13    C     0.94015   0.94004   0.97748   0.00000  Uiso   1.00
N5     N     0.94866   0.94851   0.94899   0.00000  Uiso   1.00
C14    C     0.91115   0.91105   0.98612   0.00000  Uiso   1.00
C15    C     0.91115   0.91108   0.01633   0.00000  Uiso   1.00
C16    C     0.94015   0.94009   0.02497   0.00000  Uiso   1.00
C17    C     0.03146   0.03123   0.88477   0.00000  Uiso   1.00
C18    C     0.01597   0.01571   0.85759   0.00000  Uiso   1.00
C19    C     0.98453   0.98427   0.85759   0.00000  Uiso   1.00
C20    C     0.96904   0.96881   0.88477   0.00000  Uiso   1.00
C21    C     0.88524   0.88518   0.03285   0.00000  Uiso   1.00
C22    C     0.85840   0.85833   0.01717   0.00000  Uiso   1.00
C23    C     0.85840   0.85830   0.98528   0.00000  Uiso   1.00
C24    C     0.88523   0.88512   0.96959   0.00000  Uiso   1.00
N6     N     0.00023   0.00020   0.04336   0.00000  Uiso   1.00
C25    C     0.97677   0.97677   0.06206   0.00000  Uiso   1.00
N7     N     0.94865   0.94863   0.05345   0.00000  Uiso   1.00
C26    C     0.98530   0.98534   0.09143   0.00000  Uiso   1.00
C27    C     0.01513   0.01517   0.09143   0.00000  Uiso   1.00
C28    C     0.02368   0.02367   0.06206   0.00000  Uiso   1.00
C29    C     0.03142   0.03149   0.11768   0.00000  Uiso   1.00
C30    C     0.01592   0.01603   0.14486   0.00000  Uiso   1.00
C31    C     0.98448   0.98460   0.14486   0.00000  Uiso   1.00
C32    C     0.96900   0.96907   0.11767   0.00000  Uiso   1.00
N8     N     0.05181   0.05178   0.05345   0.00000  Uiso   1.00
H1     H     0.11460   0.11456   0.05694   0.00000  Uiso   1.00
H2     H     0.11459   0.11446   0.94551   0.00000  Uiso   1.00
H3     H     0.05525   0.05502   0.88543   0.00000  Uiso   1.00
H4     H     0.94526   0.94502   0.88543   0.00000  Uiso   1.00
H5     H     0.88588   0.88584   0.05694   0.00000  Uiso   1.00
H6     H     0.88587   0.88574   0.94551   0.00000  Uiso   1.00
H7     H     0.05521   0.05528   0.11702   0.00000  Uiso   1.00
H8     H     0.94521   0.94529   0.11702   0.00000  Uiso   1.00
C33    C     0.03116   0.03130   0.17197   0.00000  Uiso   1.00
C34    C     0.01570   0.01587   0.19881   0.00000  Uiso   1.00
C35    C     0.98469   0.98486   0.19880   0.00000  Uiso   1.00
C36    C     0.96924   0.96938   0.17197   0.00000  Uiso   1.00
C37    C     0.16893   0.16887   0.03256   0.00000  Uiso   1.00
C38    C     0.19518   0.19510   0.01651   0.00000  Uiso   1.00
C39    C     0.19518   0.19508   0.98595   0.00000  Uiso   1.00
C40    C     0.16893   0.16881   0.96989   0.00000  Uiso   1.00
C41    C     0.03120   0.03093   0.83048   0.00000  Uiso   1.00
C42    C     0.01575   0.01546   0.80364   0.00000  Uiso   1.00
C43    C     0.98474   0.98445   0.80364   0.00000  Uiso   1.00
C44    C     0.96929   0.96901   0.83048   0.00000  Uiso   1.00
C45    C     0.83155   0.83148   0.03256   0.00000  Uiso   1.00
C46    C     0.80530   0.80522   0.01651   0.00000  Uiso   1.00
C47    C     0.80529   0.80519   0.98595   0.00000  Uiso   1.00
C48    C     0.83154   0.83143   0.96989   0.00000  Uiso   1.00
H9     H     0.05496   0.05509   0.17234   0.00000  Uiso   1.00
O1     O     0.03076   0.03094   0.22583   0.00000  Uiso   1.00
O2     O     0.96963   0.96982   0.22582   0.00000  Uiso   1.00
H10    H     0.94544   0.94559   0.17233   0.00000  Uiso   1.00
H11    H     0.16951   0.16948   0.05665   0.00000  Uiso   1.00
O3     O     0.22241   0.22235   0.03004   0.00000  Uiso   1.00
O4     O     0.22242   0.22229   0.97243   0.00000  Uiso   1.00
H12    H     0.16952   0.16938   0.94581   0.00000  Uiso   1.00
H13    H     0.05500   0.05473   0.83011   0.00000  Uiso   1.00
O5     O     0.03079   0.03050   0.77662   0.00000  Uiso   1.00
O6     O     0.96967   0.96937   0.77662   0.00000  Uiso   1.00
H14    H     0.94550   0.94521   0.83011   0.00000  Uiso   1.00
H15    H     0.83097   0.83092   0.05665   0.00000  Uiso   1.00
O7     O     0.77807   0.77799   0.03003   0.00000  Uiso   1.00
O8     O     0.77806   0.77795   0.97243   0.00000  Uiso   1.00
H16    H     0.83095   0.83082   0.94581   0.00000  Uiso   1.00
Ni1    Ni    0.00023   0.00015   0.00122   0.00000  Uiso   1.00
C49    C     0.38527   0.61525   0.46961   0.00000  Uiso   1.00
C50    C     0.35842   0.64207   0.48529   0.00000  Uiso   1.00
C51    C     0.35842   0.64204   0.51718   0.00000  Uiso   1.00
C52    C     0.38526   0.61519   0.53287   0.00000  Uiso   1.00
C53    C     0.41118   0.58930   0.51634   0.00000  Uiso   1.00
C54    C     0.41119   0.58933   0.48613   0.00000  Uiso   1.00
C55    C     0.44019   0.56033   0.47749   0.00000  Uiso   1.00
N9     N     0.45866   0.54184   0.50124   0.00000  Uiso   1.00
C56    C     0.44019   0.56028   0.52498   0.00000  Uiso   1.00
N10    N     0.44869   0.55175   0.55347   0.00000  Uiso   1.00
C57    C     0.47682   0.52361   0.56207   0.00000  Uiso   1.00
N11    N     0.50027   0.50018   0.54337   0.00000  Uiso   1.00
C58    C     0.52372   0.47671   0.56207   0.00000  Uiso   1.00
C59    C     0.51517   0.48521   0.59144   0.00000  Uiso   1.00
C60    C     0.48534   0.51504   0.59144   0.00000  Uiso   1.00
N12    N     0.54189   0.45861   0.50124   0.00000  Uiso   1.00
C61    C     0.56036   0.44012   0.52498   0.00000  Uiso   1.00
N13    N     0.55185   0.44859   0.55347   0.00000  Uiso   1.00
C62    C     0.58936   0.41112   0.51634   0.00000  Uiso   1.00
C63    C     0.58936   0.41115   0.48613   0.00000  Uiso   1.00
C64    C     0.56036   0.44017   0.47749   0.00000  Uiso   1.00
C65    C     0.46903   0.53130   0.61769   0.00000  Uiso   1.00
C66    C     0.48451   0.51577   0.64487   0.00000  Uiso   1.00
C67    C     0.51595   0.48433   0.64487   0.00000  Uiso   1.00
C68    C     0.53146   0.46887   0.61769   0.00000  Uiso   1.00
C69    C     0.61527   0.38525   0.46961   0.00000  Uiso   1.00
C70    C     0.64210   0.35839   0.48529   0.00000  Uiso   1.00
C71    C     0.64210   0.35836   0.51718   0.00000  Uiso   1.00
C72    C     0.61527   0.38518   0.53287   0.00000  Uiso   1.00
N14    N     0.50029   0.50028   0.45910   0.00000  Uiso   1.00
C73    C     0.52374   0.47685   0.44040   0.00000  Uiso   1.00
N15    N     0.55187   0.44871   0.44901   0.00000  Uiso   1.00
C74    C     0.51521   0.48542   0.41103   0.00000  Uiso   1.00
C75    C     0.48538   0.51525   0.41103   0.00000  Uiso   1.00
C76    C     0.47684   0.52375   0.44040   0.00000  Uiso   1.00
C77    C     0.46908   0.53157   0.38479   0.00000  Uiso   1.00
C78    C     0.48457   0.51610   0.35760   0.00000  Uiso   1.00
C79    C     0.51601   0.48466   0.35760   0.00000  Uiso   1.00
C80    C     0.53151   0.46914   0.38479   0.00000  Uiso   1.00
N16    N     0.44871   0.55187   0.44901   0.00000  Uiso   1.00
H17    H     0.38591   0.61463   0.44552   0.00000  Uiso   1.00
H18    H     0.38590   0.61453   0.55695   0.00000  Uiso   1.00
H19    H     0.44524   0.55508   0.61703   0.00000  Uiso   1.00
H20    H     0.55524   0.44509   0.61703   0.00000  Uiso   1.00
H21    H     0.61463   0.38591   0.44552   0.00000  Uiso   1.00
H22    H     0.61463   0.38580   0.55695   0.00000  Uiso   1.00
H23    H     0.44530   0.55535   0.38544   0.00000  Uiso   1.00
H24    H     0.55529   0.44536   0.38544   0.00000  Uiso   1.00
C81    C     0.46933   0.53135   0.33049   0.00000  Uiso   1.00
C82    C     0.48477   0.51591   0.30365   0.00000  Uiso   1.00
C83    C     0.51578   0.48490   0.30366   0.00000  Uiso   1.00
C84    C     0.53124   0.46943   0.33049   0.00000  Uiso   1.00
C85    C     0.33156   0.66893   0.46990   0.00000  Uiso   1.00
C86    C     0.30530   0.69515   0.48595   0.00000  Uiso   1.00
C87    C     0.30530   0.69512   0.51651   0.00000  Uiso   1.00
C88    C     0.33156   0.66887   0.53257   0.00000  Uiso   1.00
C89    C     0.46926   0.53097   0.67198   0.00000  Uiso   1.00
C90    C     0.48471   0.51549   0.69882   0.00000  Uiso   1.00
C91    C     0.51572   0.48448   0.69882   0.00000  Uiso   1.00
C92    C     0.53118   0.46906   0.67198   0.00000  Uiso   1.00
C93    C     0.66894   0.33154   0.46990   0.00000  Uiso   1.00
C94    C     0.69518   0.30527   0.48595   0.00000  Uiso   1.00
C95    C     0.69519   0.30524   0.51651   0.00000  Uiso   1.00
C96    C     0.66895   0.33148   0.53257   0.00000  Uiso   1.00
H25    H     0.44553   0.55515   0.33012   0.00000  Uiso   1.00
O9     O     0.46970   0.53098   0.27663   0.00000  Uiso   1.00
O10    O     0.53082   0.46985   0.27663   0.00000  Uiso   1.00
H26    H     0.55503   0.44564   0.33012   0.00000  Uiso   1.00
H27    H     0.33098   0.66954   0.44581   0.00000  Uiso   1.00
O11    O     0.27806   0.72239   0.47243   0.00000  Uiso   1.00
O12    O     0.27805   0.72233   0.53003   0.00000  Uiso   1.00
H28    H     0.33097   0.66943   0.55665   0.00000  Uiso   1.00
H29    H     0.44547   0.55477   0.67235   0.00000  Uiso   1.00
O13    O     0.46965   0.53052   0.72584   0.00000  Uiso   1.00
O14    O     0.53078   0.46940   0.72584   0.00000  Uiso   1.00
H30    H     0.55498   0.44526   0.67235   0.00000  Uiso   1.00
H31    H     0.66953   0.33098   0.44581   0.00000  Uiso   1.00
O15    O     0.72241   0.27804   0.47243   0.00000  Uiso   1.00
O16    O     0.72241   0.27798   0.53003   0.00000  Uiso   1.00
H32    H     0.66953   0.33087   0.55665   0.00000  Uiso   1.00
Ni2    Ni    0.50028   0.50023   0.50124   0.00000  Uiso   1.00
C97    C     0.88518   0.11517   0.46960   0.00000  Uiso   1.00
C98    C     0.85835   0.14199   0.48528   0.00000  Uiso   1.00
C99    C     0.85835   0.14196   0.51718   0.00000  Uiso   1.00
C100   C     0.88518   0.11510   0.53286   0.00000  Uiso   1.00
C101   C     0.91109   0.08920   0.51633   0.00000  Uiso   1.00
C102   C     0.91109   0.08923   0.48612   0.00000  Uiso   1.00
C103   C     0.94009   0.06023   0.47748   0.00000  Uiso   1.00
N17    N     0.95856   0.04174   0.50123   0.00000  Uiso   1.00
C104   C     0.94009   0.06018   0.52497   0.00000  Uiso   1.00
N18    N     0.94859   0.05165   0.55346   0.00000  Uiso   1.00
C105   C     0.97671   0.02351   0.56206   0.00000  Uiso   1.00
N19    N     0.00017   0.00008   0.54336   0.00000  Uiso   1.00
C106   C     0.02362   0.97661   0.56206   0.00000  Uiso   1.00
C107   C     0.01508   0.98511   0.59143   0.00000  Uiso   1.00
C108   C     0.98525   0.01494   0.59143   0.00000  Uiso   1.00
N20    N     0.04178   0.95851   0.50123   0.00000  Uiso   1.00
C109   C     0.06025   0.94002   0.52497   0.00000  Uiso   1.00
N21    N     0.05175   0.94849   0.55346   0.00000  Uiso   1.00
C110   C     0.08926   0.91102   0.51633   0.00000  Uiso   1.00
C111   C     0.08926   0.91105   0.48612   0.00000  Uiso   1.00
C112   C     0.06026   0.94007   0.47748   0.00000  Uiso   1.00
C113   C     0.96895   0.03121   0.61768   0.00000  Uiso   1.00
C114   C     0.98444   0.01570   0.64486   0.00000  Uiso   1.00
C115   C     0.01588   0.98426   0.64486   0.00000  Uiso   1.00
C116   C     0.03138   0.96879   0.61768   0.00000  Uiso   1.00
C117   C     0.11518   0.88516   0.46960   0.00000  Uiso   1.00
C118   C     0.14203   0.85832   0.48528   0.00000  Uiso   1.00
C119   C     0.14203   0.85829   0.51718   0.00000  Uiso   1.00
C120   C     0.11518   0.88510   0.53286   0.00000  Uiso   1.00
N22    N     0.00018   0.00017   0.45909   0.00000  Uiso   1.00
C121   C     0.02364   0.97675   0.44039   0.00000  Uiso   1.00
N23    N     0.05176   0.94860   0.44900   0.00000  Uiso   1.00
C122   C     0.01511   0.98532   0.41102   0.00000  Uiso   1.00
C123   C     0.98528   0.01515   0.41102   0.00000  Uiso   1.00
C124   C     0.97674   0.02365   0.44039   0.00000  Uiso   1.00
C125   C     0.96899   0.03148   0.38477   0.00000  Uiso   1.00
C126   C     0.98450   0.01602   0.35759   0.00000  Uiso   1.00
C127   C     0.01593   0.98458   0.35759   0.00000  Uiso   1.00
C128   C     0.03142   0.96905   0.38478   0.00000  Uiso   1.00
N24    N     0.94860   0.05176   0.44900   0.00000  Uiso   1.00
H33    H     0.88582   0.11455   0.44551   0.00000  Uiso   1.00
H34    H     0.88582   0.11444   0.55694   0.00000  Uiso   1.00
H35    H     0.94516   0.05500   0.61702   0.00000  Uiso   1.00
H36    H     0.05516   0.94501   0.61702   0.00000  Uiso   1.00
H37    H     0.11454   0.88583   0.44551   0.00000  Uiso   1.00
H38    H     0.11454   0.88572   0.55694   0.00000  Uiso   1.00
H39    H     0.94521   0.05527   0.38543   0.00000  Uiso   1.00
H40    H     0.05520   0.94527   0.38543   0.00000  Uiso   1.00
C129   C     0.96926   0.03129   0.33048   0.00000  Uiso   1.00
C130   C     0.98472   0.01586   0.30364   0.00000  Uiso   1.00
C131   C     0.01573   0.98485   0.30365   0.00000  Uiso   1.00
C132   C     0.03118   0.96937   0.33048   0.00000  Uiso   1.00
C133   C     0.83150   0.16887   0.46989   0.00000  Uiso   1.00
C134   C     0.80526   0.19511   0.48595   0.00000  Uiso   1.00
C135   C     0.80526   0.19508   0.51651   0.00000  Uiso   1.00
C136   C     0.83150   0.16881   0.53256   0.00000  Uiso   1.00
C137   C     0.96921   0.03092   0.67197   0.00000  Uiso   1.00
C138   C     0.98467   0.01545   0.69880   0.00000  Uiso   1.00
C139   C     0.01568   0.98444   0.69881   0.00000  Uiso   1.00
C140   C     0.03113   0.96900   0.67197   0.00000  Uiso   1.00
C141   C     0.16889   0.83148   0.46989   0.00000  Uiso   1.00
C142   C     0.19514   0.80523   0.48595   0.00000  Uiso   1.00
C143   C     0.19514   0.80520   0.51651   0.00000  Uiso   1.00
C144   C     0.16889   0.83142   0.53256   0.00000  Uiso   1.00
H41    H     0.94547   0.05509   0.33011   0.00000  Uiso   1.00
O17    O     0.96966   0.03094   0.27662   0.00000  Uiso   1.00
O18    O     0.03079   0.96981   0.27662   0.00000  Uiso   1.00
H42    H     0.05497   0.94558   0.33011   0.00000  Uiso   1.00
H43    H     0.83092   0.16948   0.44581   0.00000  Uiso   1.00
O19    O     0.77803   0.22236   0.47243   0.00000  Uiso   1.00
O20    O     0.77803   0.22231   0.53003   0.00000  Uiso   1.00
H44    H     0.83092   0.16937   0.55665   0.00000  Uiso   1.00
H45    H     0.94541   0.05471   0.67234   0.00000  Uiso   1.00
O21    O     0.96963   0.03050   0.72583   0.00000  Uiso   1.00
O22    O     0.03075   0.96937   0.72583   0.00000  Uiso   1.00
H46    H     0.05493   0.94521   0.67234   0.00000  Uiso   1.00
H47    H     0.16948   0.83092   0.44581   0.00000  Uiso   1.00
O23    O     0.22239   0.77801   0.47243   0.00000  Uiso   1.00
O24    O     0.22238   0.77796   0.53003   0.00000  Uiso   1.00
H48    H     0.16947   0.83082   0.55665   0.00000  Uiso   1.00
Ni3    Ni    0.00017   0.00012   0.50123   0.00000  Uiso   1.00
C145   C     0.53143   0.53150   0.11768   0.00000  Uiso   1.00
C146   C     0.51594   0.51604   0.14487   0.00000  Uiso   1.00
C147   C     0.48449   0.48460   0.14487   0.00000  Uiso   1.00
C148   C     0.46900   0.46908   0.11769   0.00000  Uiso   1.00
C149   C     0.48531   0.48534   0.09144   0.00000  Uiso   1.00
C150   C     0.51514   0.51517   0.09144   0.00000  Uiso   1.00
C151   C     0.52368   0.52367   0.06207   0.00000  Uiso   1.00
N25    N     0.50024   0.50020   0.04337   0.00000  Uiso   1.00
C152   C     0.47678   0.47677   0.06207   0.00000  Uiso   1.00
N26    N     0.44865   0.44863   0.05346   0.00000  Uiso   1.00
C153   C     0.44015   0.44009   0.02498   0.00000  Uiso   1.00
N27    N     0.45862   0.45854   0.00123   0.00000  Uiso   1.00
C154   C     0.44016   0.44004   0.97749   0.00000  Uiso   1.00
C155   C     0.41115   0.41104   0.98613   0.00000  Uiso   1.00
C156   C     0.41115   0.41108   0.01634   0.00000  Uiso   1.00
N28    N     0.50025   0.50010   0.95910   0.00000  Uiso   1.00
C157   C     0.47680   0.47662   0.94040   0.00000  Uiso   1.00
N29    N     0.44867   0.44851   0.94901   0.00000  Uiso   1.00
C158   C     0.48534   0.48513   0.91103   0.00000  Uiso   1.00
C159   C     0.51517   0.51496   0.91103   0.00000  Uiso   1.00
C160   C     0.52370   0.52353   0.94040   0.00000  Uiso   1.00
C161   C     0.38523   0.38518   0.03287   0.00000  Uiso   1.00
C162   C     0.35840   0.35833   0.01718   0.00000  Uiso   1.00
C163   C     0.35840   0.35829   0.98529   0.00000  Uiso   1.00
C164   C     0.38524   0.38511   0.96961   0.00000  Uiso   1.00
C165   C     0.53147   0.53123   0.88479   0.00000  Uiso   1.00
C166   C     0.51598   0.51572   0.85760   0.00000  Uiso   1.00
C167   C     0.48454   0.48427   0.85760   0.00000  Uiso   1.00
C168   C     0.46905   0.46880   0.88478   0.00000  Uiso   1.00
N30    N     0.54185   0.54176   0.00123   0.00000  Uiso   1.00
C169   C     0.56032   0.56021   0.97749   0.00000  Uiso   1.00
N31    N     0.55183   0.55167   0.94901   0.00000  Uiso   1.00
C170   C     0.58933   0.58922   0.98613   0.00000  Uiso   1.00
C171   C     0.58933   0.58925   0.01634   0.00000  Uiso   1.00
C172   C     0.56032   0.56026   0.02498   0.00000  Uiso   1.00
C173   C     0.61524   0.61518   0.03286   0.00000  Uiso   1.00
C174   C     0.64208   0.64200   0.01718   0.00000  Uiso   1.00
C175   C     0.64208   0.64197   0.98528   0.00000  Uiso   1.00
C176   C     0.61524   0.61512   0.96960   0.00000  Uiso   1.00
N32    N     0.55181   0.55179   0.05346   0.00000  Uiso   1.00
H49    H     0.55522   0.55528   0.11703   0.00000  Uiso   1.00
H50    H     0.44522   0.44529   0.11703   0.00000  Uiso   1.00
H51    H     0.38587   0.38585   0.05695   0.00000  Uiso   1.00
H52    H     0.38588   0.38573   0.94552   0.00000  Uiso   1.00
H53    H     0.55525   0.55502   0.88544   0.00000  Uiso   1.00
H54    H     0.44526   0.44502   0.88543   0.00000  Uiso   1.00
H55    H     0.61460   0.61457   0.05695   0.00000  Uiso   1.00
H56    H     0.61460   0.61445   0.94552   0.00000  Uiso   1.00
C177   C     0.66893   0.66888   0.03257   0.00000  Uiso   1.00
C178   C     0.69518   0.69511   0.01651   0.00000  Uiso   1.00
C179   C     0.69518   0.69507   0.98595   0.00000  Uiso   1.00
C180   C     0.66894   0.66881   0.96990   0.00000  Uiso   1.00
C181   C     0.53117   0.53131   0.17198   0.00000  Uiso   1.00
C182   C     0.51572   0.51589   0.19881   0.00000  Uiso   1.00
C183   C     0.48471   0.48488   0.19881   0.00000  Uiso   1.00
C184   C     0.46925   0.46940   0.17198   0.00000  Uiso   1.00
C185   C     0.33155   0.33149   0.03257   0.00000  Uiso   1.00
C186   C     0.30530   0.30522   0.01651   0.00000  Uiso   1.00
C187   C     0.30530   0.30519   0.98596   0.00000  Uiso   1.00
C188   C     0.33155   0.33143   0.96990   0.00000  Uiso   1.00
C189   C     0.53122   0.53094   0.83049   0.00000  Uiso   1.00
C190   C     0.51576   0.51547   0.80366   0.00000  Uiso   1.00
C191   C     0.48475   0.48445   0.80365   0.00000  Uiso   1.00
C192   C     0.46930   0.46902   0.83049   0.00000  Uiso   1.00
H57    H     0.66951   0.66949   0.05665   0.00000  Uiso   1.00
O25    O     0.72241   0.72236   0.03004   0.00000  Uiso   1.00
O26    O     0.72242   0.72229   0.97243   0.00000  Uiso   1.00
H58    H     0.66953   0.66936   0.94581   0.00000  Uiso   1.00
H59    H     0.55497   0.55510   0.17235   0.00000  Uiso   1.00
O27    O     0.53079   0.53096   0.22584   0.00000  Uiso   1.00
O28    O     0.46966   0.46984   0.22584   0.00000  Uiso   1.00
H60    H     0.44546   0.44560   0.17235   0.00000  Uiso   1.00
H61    H     0.33096   0.33092   0.05665   0.00000  Uiso   1.00
O29    O     0.27807   0.27799   0.03004   0.00000  Uiso   1.00
O30    O     0.27806   0.27795   0.97243   0.00000  Uiso   1.00
H62    H     0.33096   0.33081   0.94582   0.00000  Uiso   1.00
H63    H     0.55501   0.55473   0.83012   0.00000  Uiso   1.00
O31    O     0.53081   0.53051   0.77663   0.00000  Uiso   1.00
O32    O     0.46968   0.46939   0.77663   0.00000  Uiso   1.00
H64    H     0.44551   0.44522   0.83011   0.00000  Uiso   1.00
Ni4    Ni    0.50024   0.50015   0.00123   0.00000  Uiso   1.00
Zn1    Zn    0.00021   0.00038   0.25122   0.00000  Uiso   1.00
Zn2    Zn    0.50023   0.49995   0.75124   0.00000  Uiso   1.00
Zn3    Zn    0.50024   0.50041   0.25124   0.00000  Uiso   1.00
Zn4    Zn    0.00021  -0.00007   0.75122   0.00000  Uiso   1.00
Cu1    Cu    0.25024   0.25014   0.00123   0.00000  Uiso   1.00
Cu2    Cu    0.25022   0.75017   0.50123   0.00000  Uiso   1.00
Cu3    Cu    0.75024   0.75015   0.00123   0.00000  Uiso   1.00
Cu4    Cu    0.75021   0.25017   0.50123   0.00000  Uiso   1.00
loop_
_geom_bond_atom_site_label_1
_geom_bond_atom_site_label_2
_geom_bond_distance
_geom_bond_site_symmetry_2
_ccdc_geom_bond_type
C1     C2      1.411   .     A
C1     C6      1.394   .     A
C1     H1      1.084   .     S
C2     C3      1.435   1_554 A
C2     C37     1.405   .     A
C3     C2      1.435   1_556 A
C3     C4      1.411   .     A
C3     C40     1.405   .     A
C4     C5      1.394   .     A
C4     H2      1.084   .     S
C5     C6      1.359   1_556 A
C5     C8      1.377   .     A
C6     C5      1.359   1_554 A
C6     C7      1.377   .     A
C7     N1      1.359   .     A
C7     N8      1.338   .     A
N1     C8      1.359   1_554 A
N1     Ni1     1.895   .     S
C8     N1      1.359   1_556 A
C8     N2      1.338   .     A
N2     C9      1.338   .     A
C9     N3      1.359   .     A
C9     C12     1.377   .     A
N3     C10     1.359   1_445 A
N3     Ni1     1.895   1_556 S
C10    N3      1.359   1_665 A
C10    C11     1.377   .     A
C10    N5      1.338   .     A
C11    C12     1.358   1_665 A
C11    C20     1.394   .     A
C12    C11     1.358   1_445 A
C12    C17     1.394   .     A
N4     C13     1.359   1_554 A
N4     C16     1.359   .     A
N4     Ni1     1.895   1_665 S
C13    N4      1.359   1_556 A
C13    N5      1.338   .     A
C13    C14     1.377   .     A
C14    C15     1.359   1_556 A
C14    C24     1.394   .     A
C15    C14     1.359   1_554 A
C15    C16     1.377   .     A
C15    C21     1.394   .     A
C16    N7      1.338   .     A
C17    C18     1.412   .     A
C17    H3      1.084   .     S
C18    C19     1.432   1_445 A
C18    C41     1.403   .     A
C19    C18     1.432   1_665 A
C19    C20     1.412   .     A
C19    C44     1.403   .     A
C20    H4      1.084   .     S
C21    C22     1.411   .     A
C21    H5      1.084   .     S
C22    C23     1.435   1_554 A
C22    C45     1.405   .     A
C23    C22     1.435   1_556 A
C23    C24     1.411   .     A
C23    C48     1.405   .     A
C24    H6      1.084   .     S
N6     C25     1.359   1_445 A
N6     C28     1.359   .     A
N6     Ni1     1.895   .     S
C25    N6      1.359   1_665 A
C25    N7      1.338   .     A
C25    C26     1.377   .     A
C26    C27     1.358   1_665 A
C26    C32     1.394   .     A
C27    C26     1.358   1_445 A
C27    C28     1.377   .     A
C27    C29     1.394   .     A
C28    N8      1.338   .     A
C29    C30     1.412   .     A
C29    H7      1.084   .     S
C30    C31     1.432   1_445 A
C30    C33     1.403   .     A
C31    C30     1.432   1_665 A
C31    C32     1.411   .     A
C31    C36     1.403   .     A
C32    H8      1.084   .     S
C33    C34     1.397   .     A
C33    H9      1.084   .     S
C34    C35     1.412   1_445 A
C34    O1      1.395   .     S
C35    C34     1.412   1_665 A
C35    C36     1.397   .     A
C35    O2      1.395   .     S
C36    H10     1.084   .     S
C37    C38     1.396   .     A
C37    H11     1.083   .     S
C38    C39     1.374   1_554 A
C38    O3      1.381   .     S
C39    C38     1.374   1_556 A
C39    C40     1.396   .     A
C39    O4      1.381   .     S
C40    H12     1.083   .     S
C41    C42     1.397   .     A
C41    H13     1.084   .     S
C42    C43     1.412   1_445 A
C42    O5      1.395   .     S
C43    C42     1.412   1_665 A
C43    C44     1.397   .     A
C43    O6      1.395   .     S
C44    H14     1.084   .     S
C45    C46     1.396   .     A
C45    H15     1.083   .     S
C46    C47     1.374   1_554 A
C46    O7      1.381   .     S
C47    C46     1.374   1_556 A
C47    C48     1.396   .     A
C47    O8      1.381   .     S
C48    H16     1.083   .     S
O1     Zn1     1.800   .     S
O2     Zn1     1.800   1_665 S
O3     Cu1     1.812   .     S
O4     Cu1     1.812   1_556 S
O5     Zn4     1.800   .     S
O6     Zn4     1.800   1_665 S
O7     Cu3     1.812   .     S
O8     Cu3     1.812   1_556 S
Ni1    N4      1.895   1_445 S
Ni1    N3      1.895   1_554 S
C49    C50     1.411   .     A
C49    C54     1.394   .     A
C49    H17     1.084   .     S
C50    C51     1.435   .     A
C50    C85     1.405   .     A
C51    C52     1.411   .     A
C51    C88     1.405   .     A
C52    C53     1.394   .     A
C52    H18     1.084   .     S
C53    C54     1.359   .     A
C53    C56     1.377   .     A
C54    C55     1.377   .     A
C55    N9      1.359   .     A
C55    N16     1.338   .     A
N9     C56     1.359   .     A
N9     Ni2     1.895   .     S
C56    N10     1.338   .     A
N10    C57     1.338   .     A
C57    N11     1.359   .     A
C57    C60     1.377   .     A
N11    C58     1.359   .     A
N11    Ni2     1.895   .     S
C58    C59     1.377   .     A
C58    N13     1.338   .     A
C59    C60     1.358   .     A
C59    C68     1.394   .     A
C60    C65     1.394   .     A
N12    C61     1.359   .     A
N12    C64     1.359   .     A
N12    Ni2     1.895   .     S
C61    N13     1.338   .     A
C61    C62     1.377   .     A
C62    C63     1.359   .     A
C62    C72     1.394   .     A
C63    C64     1.377   .     A
C63    C69     1.394   .     A
C64    N15     1.338   .     A
C65    C66     1.412   .     A
C65    H19     1.084   .     S
C66    C67     1.432   .     A
C66    C89     1.403   .     A
C67    C68     1.412   .     A
C67    C92     1.403   .     A
C68    H20     1.084   .     S
C69    C70     1.411   .     A
C69    H21     1.084   .     S
C70    C71     1.435   .     A
C70    C93     1.405   .     A
C71    C72     1.411   .     A
C71    C96     1.405   .     A
C72    H22     1.084   .     S
N14    C73     1.359   .     A
N14    C76     1.359   .     A
N14    Ni2     1.895   .     S
C73    N15     1.338   .     A
C73    C74     1.377   .     A
C74    C75     1.358   .     A
C74    C80     1.394   .     A
C75    C76     1.377   .     A
C75    C77     1.394   .     A
C76    N16     1.338   .     A
C77    C78     1.412   .     A
C77    H23     1.084   .     S
C78    C79     1.432   .     A
C78    C81     1.403   .     A
C79    C80     1.412   .     A
C79    C84     1.403   .     A
C80    H24     1.084   .     S
C81    C82     1.397   .     A
C81    H25     1.084   .     S
C82    C83     1.412   .     A
C82    O9      1.395   .     S
C83    C84     1.397   .     A
C83    O10     1.395   .     S
C84    H26     1.084   .     S
C85    C86     1.396   .     A
C85    H27     1.083   .     S
C86    C87     1.374   .     A
C86    O11     1.381   .     S
C87    C88     1.396   .     A
C87    O12     1.381   .     S
C88    H28     1.083   .     S
C89    C90     1.397   .     A
C89    H29     1.084   .     S
C90    C91     1.412   .     A
C90    O13     1.395   .     S
C91    C92     1.397   .     A
C91    O14     1.395   .     S
C92    H30     1.084   .     S
C93    C94     1.396   .     A
C93    H31     1.083   .     S
C94    C95     1.374   .     A
C94    O15     1.381   .     S
C95    C96     1.396   .     A
C95    O16     1.381   .     S
C96    H32     1.083   .     S
O9     Zn3     1.800   .     S
O10    Zn3     1.800   .     S
O11    Cu2     1.812   .     S
O12    Cu2     1.812   .     S
O13    Zn2     1.800   .     S
O14    Zn2     1.800   .     S
O15    Cu4     1.812   .     S
O16    Cu4     1.812   .     S
C97    C98     1.411   .     A
C97    C102    1.394   .     A
C97    H33     1.084   .     S
C98    C99     1.435   .     A
C98    C133    1.405   .     A
C99    C100    1.411   .     A
C99    C136    1.405   .     A
C100   C101    1.394   .     A
C100   H34     1.084   .     S
C101   C102    1.359   .     A
C101   C104    1.377   .     A
C102   C103    1.377   .     A
C103   N17     1.359   .     A
C103   N24     1.338   .     A
N17    C104    1.359   .     A
N17    Ni3     1.895   1_655 S
C104   N18     1.338   .     A
N18    C105    1.338   .     A
C105   N19     1.359   1_655 A
C105   C108    1.377   .     A
N19    C105    1.359   1_455 A
N19    C106    1.359   1_545 A
N19    Ni3     1.895   .     S
C106   N19     1.359   1_565 A
C106   C107    1.377   .     A
C106   N21     1.338   .     A
C107   C108    1.358   1_465 A
C107   C116    1.394   .     A
C108   C107    1.358   1_645 A
C108   C113    1.394   .     A
N20    C109    1.359   .     A
N20    C112    1.359   .     A
N20    Ni3     1.895   1_565 S
C109   N21     1.338   .     A
C109   C110    1.377   .     A
C110   C111    1.359   .     A
C110   C120    1.394   .     A
C111   C112    1.377   .     A
C111   C117    1.394   .     A
C112   N23     1.338   .     A
C113   C114    1.411   .     A
C113   H35     1.084   .     S
C114   C115    1.432   1_645 A
C114   C137    1.403   .     A
C115   C114    1.432   1_465 A
C115   C116    1.412   .     A
C115   C140    1.403   .     A
C116   H36     1.084   .     S
C117   C118    1.411   .     A
C117   H37     1.084   .     S
C118   C119    1.435   .     A
C118   C141    1.405   .     A
C119   C120    1.411   .     A
C119   C144    1.405   .     A
C120   H38     1.084   .     S
N22    C121    1.359   1_545 A
N22    C124    1.359   1_455 A
N22    Ni3     1.895   .     S
C121   N22     1.359   1_565 A
C121   N23     1.338   .     A
C121   C122    1.377   .     A
C122   C123    1.358   1_465 A
C122   C128    1.394   .     A
C123   C122    1.358   1_645 A
C123   C124    1.377   .     A
C123   C125    1.394   .     A
C124   N22     1.359   1_655 A
C124   N24     1.338   .     A
C125   C126    1.412   .     A
C125   H39     1.084   .     S
C126   C127    1.432   1_645 A
C126   C129    1.403   .     A
C127   C126    1.432   1_465 A
C127   C128    1.412   .     A
C127   C132    1.403   .     A
C128   H40     1.084   .     S
C129   C130    1.397   .     A
C129   H41     1.084   .     S
C130   C131    1.412   1_645 A
C130   O17     1.395   .     S
C131   C130    1.412   1_465 A
C131   C132    1.397   .     A
C131   O18     1.395   .     S
C132   H42     1.084   .     S
C133   C134    1.396   .     A
C133   H43     1.083   .     S
C134   C135    1.374   .     A
C134   O19     1.381   .     S
C135   C136    1.396   .     A
C135   O20     1.381   .     S
C136   H44     1.083   .     S
C137   C138    1.397   .     A
C137   H45     1.084   .     S
C138   C139    1.412   1_645 A
C138   O21     1.395   .     S
C139   C138    1.412   1_465 A
C139   C140    1.397   .     A
C139   O22     1.395   .     S
C140   H46     1.084   .     S
C141   C142    1.396   .     A
C141   H47     1.083   .     S
C142   C143    1.374   .     A
C142   O23     1.381   .     S
C143   C144    1.396   .     A
C143   O24     1.381   .     S
C144   H48     1.083   .     S
O17    Zn1     1.800   1_655 S
O18    Zn1     1.800   1_565 S
O19    Cu4     1.812   .     S
O20    Cu4     1.812   .     S
O21    Zn4     1.800   1_655 S
O22    Zn4     1.800   1_565 S
O23    Cu2     1.812   .     S
O24    Cu2     1.812   .     S
Ni3    N17     1.895   1_455 S
Ni3    N20     1.895   1_545 S
C145   C146    1.412   .     A
C145   C150    1.394   .     A
C145   H49     1.084   .     S
C146   C147    1.432   .     A
C146   C181    1.403   .     A
C147   C148    1.412   .     A
C147   C184    1.403   .     A
C148   C149    1.394   .     A
C148   H50     1.084   .     S
C149   C150    1.358   .     A
C149   C152    1.377   .     A
C150   C151    1.377   .     A
C151   N25     1.359   .     A
C151   N32     1.338   .     A
N25    C152    1.359   .     A
N25    Ni4     1.895   .     S
C152   N26     1.338   .     A
N26    C153    1.338   .     A
C153   N27     1.359   .     A
C153   C156    1.377   .     A
N27    C154    1.359   1_554 A
N27    Ni4     1.895   .     S
C154   N27     1.359   1_556 A
C154   C155    1.377   .     A
C154   N29     1.338   .     A
C155   C156    1.359   1_556 A
C155   C164    1.394   .     A
C156   C155    1.359   1_554 A
C156   C161    1.394   .     A
N28    C157    1.359   .     A
N28    C160    1.359   .     A
N28    Ni4     1.895   1_556 S
C157   N29     1.338   .     A
C157   C158    1.377   .     A
C158   C159    1.358   .     A
C158   C168    1.394   .     A
C159   C160    1.377   .     A
C159   C165    1.394   .     A
C160   N31     1.338   .     A
C161   C162    1.411   .     A
C161   H51     1.084   .     S
C162   C163    1.435   1_554 A
C162   C185    1.405   .     A
C163   C162    1.435   1_556 A
C163   C164    1.411   .     A
C163   C188    1.405   .     A
C164   H52     1.084   .     S
C165   C166    1.411   .     A
C165   H53     1.084   .     S
C166   C167    1.432   .     A
C166   C189    1.403   .     A
C167   C168    1.412   .     A
C167   C192    1.403   .     A
C168   H54     1.084   .     S
N30    C169    1.359   1_554 A
N30    C172    1.359   .     A
N30    Ni4     1.895   .     S
C169   N30     1.359   1_556 A
C169   N31     1.338   .     A
C169   C170    1.377   .     A
C170   C171    1.359   1_556 A
C170   C176    1.394   .     A
C171   C170    1.359   1_554 A
C171   C172    1.377   .     A
C171   C173    1.394   .     A
C172   N32     1.338   .     A
C173   C174    1.411   .     A
C173   H55     1.084   .     S
C174   C175    1.435   1_554 A
C174   C177    1.405   .     A
C175   C174    1.435   1_556 A
C175   C176    1.411   .     A
C175   C180    1.405   .     A
C176   H56     1.084   .     S
C177   C178    1.396   .     A
C177   H57     1.083   .     S
C178   C179    1.374   1_554 A
C178   O25     1.381   .     S
C179   C178    1.374   1_556 A
C179   C180    1.396   .     A
C179   O26     1.381   .     S
C180   H58     1.083   .     S
C181   C182    1.397   .     A
C181   H59     1.084   .     S
C182   C183    1.412   .     A
C182   O27     1.395   .     S
C183   C184    1.397   .     A
C183   O28     1.395   .     S
C184   H60     1.084   .     S
C185   C186    1.396   .     A
C185   H61     1.083   .     S
C186   C187    1.374   1_554 A
C186   O29     1.381   .     S
C187   C186    1.374   1_556 A
C187   C188    1.396   .     A
C187   O30     1.381   .     S
C188   H62     1.083   .     S
C189   C190    1.397   .     A
C189   H63     1.084   .     S
C190   C191    1.412   .     A
C190   O31     1.395   .     S
C191   C192    1.397   .     A
C191   O32     1.395   .     S
C192   H64     1.084   .     S
O25    Cu3     1.812   .     S
O26    Cu3     1.812   1_556 S
O27    Zn3     1.800   .     S
O28    Zn3     1.800   .     S
O29    Cu1     1.812   .     S
O30    Cu1     1.812   1_556 S
O31    Zn2     1.800   .     S
O32    Zn2     1.800   .     S
Ni4    N28     1.895   1_554 S
Zn1    O2      1.800   1_445 S
Zn1    O17     1.800   1_455 S
Zn1    O18     1.800   1_545 S
Zn4    O21     1.800   1_455 S
Zn4    O22     1.800   1_545 S
Zn4    O6      1.800   1_445 S
Cu1    O30     1.812   1_554 S
Cu1    O4      1.812   1_554 S
Cu3    O8      1.812   1_554 S
Cu3    O26     1.812   1_554 S
