data_cds-b-PcM_O-Zntet
_audit_creation_date              2021-11-06
_audit_creation_method            'Materials Studio'
_symmetry_space_group_name_H-M    'P1'
_symmetry_Int_Tables_number       1
_symmetry_cell_setting            triclinic
loop_
_symmetry_equiv_pos_as_xyz
  x,y,z
_cell_length_a                    25.3309
_cell_length_b                    25.3218
_cell_length_c                    35.2441
_cell_angle_alpha                 90.0024
_cell_angle_beta                  89.9982
_cell_angle_gamma                 90.0000
loop_
_atom_site_label
_atom_site_type_symbol
_atom_site_fract_x
_atom_site_fract_y
_atom_site_fract_z
_atom_site_U_iso_or_equiv
_atom_site_adp_type
_atom_site_occupancy
C1     C     0.85425   0.85387   0.04219   0.00000  Uiso   1.00
C2     C     0.82068   0.82024   0.02154   0.00000  Uiso   1.00
C3     C     0.82068   0.82025   0.98215   0.00000  Uiso   1.00
C4     C     0.85425   0.85387   0.96150   0.00000  Uiso   1.00
C5     C     0.88735   0.88703   0.98250   0.00000  Uiso   1.00
C6     C     0.88735   0.88703   0.02119   0.00000  Uiso   1.00
C7     C     0.92420   0.92392   0.03218   0.00000  Uiso   1.00
N1     N     0.94766   0.94741   0.00185   0.00000  Uiso   1.00
C8     C     0.92420   0.92393   0.97152   0.00000  Uiso   1.00
N2     N     0.93501   0.93475   0.93518   0.00000  Uiso   1.00
C9     C     0.97075   0.97053   0.92420   0.00000  Uiso   1.00
N3     N     0.00057   0.00036   0.94806   0.00000  Uiso   1.00
C10    C     0.03038   0.03019   0.92420   0.00000  Uiso   1.00
C11    C     0.01955   0.01935   0.88672   0.00000  Uiso   1.00
C12    C     0.98158   0.98136   0.88672   0.00000  Uiso   1.00
N4     N     0.05350   0.05328   0.00185   0.00000  Uiso   1.00
C13    C     0.07697   0.07675   0.97152   0.00000  Uiso   1.00
N5     N     0.06615   0.06594   0.93518   0.00000  Uiso   1.00
C14    C     0.11386   0.11360   0.98251   0.00000  Uiso   1.00
C15    C     0.11387   0.11359   0.02120   0.00000  Uiso   1.00
C16    C     0.07698   0.07674   0.03218   0.00000  Uiso   1.00
C17    C     0.96086   0.96063   0.85318   0.00000  Uiso   1.00
C18    C     0.98066   0.98043   0.81872   0.00000  Uiso   1.00
C19    C     0.02048   0.02026   0.81872   0.00000  Uiso   1.00
C20    C     0.04027   0.04007   0.85318   0.00000  Uiso   1.00
C21    C     0.14703   0.14669   0.04220   0.00000  Uiso   1.00
C22    C     0.18066   0.18026   0.02155   0.00000  Uiso   1.00
C23    C     0.18066   0.18026   0.98216   0.00000  Uiso   1.00
C24    C     0.14702   0.14670   0.96151   0.00000  Uiso   1.00
N6     N     0.00057   0.00035   0.05563   0.00000  Uiso   1.00
C25    C     0.03040   0.03017   0.07950   0.00000  Uiso   1.00
N7     N     0.06616   0.06592   0.06852   0.00000  Uiso   1.00
C26    C     0.01957   0.01933   0.11697   0.00000  Uiso   1.00
C27    C     0.98159   0.98134   0.11697   0.00000  Uiso   1.00
C28    C     0.97076   0.97052   0.07950   0.00000  Uiso   1.00
C29    C     0.96087   0.96061   0.15051   0.00000  Uiso   1.00
C30    C     0.98067   0.98040   0.18497   0.00000  Uiso   1.00
C31    C     0.02049   0.02023   0.18498   0.00000  Uiso   1.00
C32    C     0.04029   0.04005   0.15052   0.00000  Uiso   1.00
N8     N     0.93501   0.93474   0.06851   0.00000  Uiso   1.00
H1     H     0.85440   0.85402   0.07290   0.00000  Uiso   1.00
O1     O     0.78606   0.78556   0.03869   0.00000  Uiso   1.00
O2     O     0.78606   0.78556   0.96500   0.00000  Uiso   1.00
H2     H     0.85440   0.85402   0.93079   0.00000  Uiso   1.00
H3     H     0.93064   0.93040   0.85364   0.00000  Uiso   1.00
O3     O     0.96160   0.96135   0.78422   0.00000  Uiso   1.00
O4     O     0.03954   0.03933   0.78421   0.00000  Uiso   1.00
H4     H     0.07049   0.07030   0.85363   0.00000  Uiso   1.00
H5     H     0.14689   0.14653   0.07291   0.00000  Uiso   1.00
O5     O     0.21536   0.21486   0.03870   0.00000  Uiso   1.00
O6     O     0.21536   0.21487   0.96501   0.00000  Uiso   1.00
H6     H     0.14687   0.14655   0.93080   0.00000  Uiso   1.00
H7     H     0.93065   0.93038   0.15005   0.00000  Uiso   1.00
O7     O     0.96161   0.96132   0.21948   0.00000  Uiso   1.00
O8     O     0.03955   0.03929   0.21949   0.00000  Uiso   1.00
H8     H     0.07051   0.07027   0.15007   0.00000  Uiso   1.00
Ni1    Ni    0.00057   0.00035   0.00185   0.00000  Uiso   1.00
C33    C     0.35433   0.64687   0.46151   0.00000  Uiso   1.00
C34    C     0.32072   0.68045   0.48215   0.00000  Uiso   1.00
C35    C     0.32072   0.68046   0.52154   0.00000  Uiso   1.00
C36    C     0.35433   0.64688   0.54219   0.00000  Uiso   1.00
C37    C     0.38747   0.61376   0.52119   0.00000  Uiso   1.00
C38    C     0.38748   0.61376   0.48251   0.00000  Uiso   1.00
C39    C     0.42435   0.57689   0.47152   0.00000  Uiso   1.00
N9     N     0.44782   0.55342   0.50185   0.00000  Uiso   1.00
C40    C     0.42435   0.57689   0.53218   0.00000  Uiso   1.00
N10    N     0.43515   0.56606   0.56852   0.00000  Uiso   1.00
C41    C     0.47090   0.53030   0.57950   0.00000  Uiso   1.00
N11    N     0.50073   0.50048   0.55563   0.00000  Uiso   1.00
C42    C     0.53054   0.47064   0.57950   0.00000  Uiso   1.00
C43    C     0.51969   0.48145   0.61697   0.00000  Uiso   1.00
C44    C     0.48171   0.51944   0.61698   0.00000  Uiso   1.00
N12    N     0.55366   0.44755   0.50185   0.00000  Uiso   1.00
C45    C     0.57712   0.42407   0.53218   0.00000  Uiso   1.00
N13    N     0.56630   0.43488   0.56852   0.00000  Uiso   1.00
C46    C     0.61399   0.38720   0.52119   0.00000  Uiso   1.00
C47    C     0.61400   0.38720   0.48251   0.00000  Uiso   1.00
C48    C     0.57713   0.42408   0.47152   0.00000  Uiso   1.00
C49    C     0.46097   0.54014   0.65052   0.00000  Uiso   1.00
C50    C     0.48075   0.52031   0.68498   0.00000  Uiso   1.00
C51    C     0.52057   0.48047   0.68497   0.00000  Uiso   1.00
C52    C     0.54039   0.46070   0.65051   0.00000  Uiso   1.00
C53    C     0.64712   0.35406   0.46151   0.00000  Uiso   1.00
C54    C     0.68070   0.32044   0.48215   0.00000  Uiso   1.00
C55    C     0.68069   0.32044   0.52154   0.00000  Uiso   1.00
C56    C     0.64711   0.35405   0.54219   0.00000  Uiso   1.00
N14    N     0.50074   0.50048   0.44807   0.00000  Uiso   1.00
C57    C     0.53056   0.47065   0.42420   0.00000  Uiso   1.00
N15    N     0.56632   0.43488   0.43518   0.00000  Uiso   1.00
C58    C     0.51972   0.48146   0.38673   0.00000  Uiso   1.00
C59    C     0.48174   0.51945   0.38672   0.00000  Uiso   1.00
C60    C     0.47092   0.53030   0.42420   0.00000  Uiso   1.00
C61    C     0.46100   0.54014   0.35318   0.00000  Uiso   1.00
C62    C     0.48079   0.52031   0.31872   0.00000  Uiso   1.00
C63    C     0.52061   0.48047   0.31873   0.00000  Uiso   1.00
C64    C     0.54042   0.46071   0.35319   0.00000  Uiso   1.00
N16    N     0.43516   0.56606   0.43518   0.00000  Uiso   1.00
H9     H     0.35448   0.64671   0.43079   0.00000  Uiso   1.00
O9     O     0.28604   0.71509   0.46500   0.00000  Uiso   1.00
O10    O     0.28604   0.71509   0.53870   0.00000  Uiso   1.00
H10    H     0.35448   0.64673   0.57290   0.00000  Uiso   1.00
H11    H     0.43076   0.57037   0.65008   0.00000  Uiso   1.00
O11    O     0.46167   0.53934   0.71949   0.00000  Uiso   1.00
O12    O     0.53961   0.46137   0.71947   0.00000  Uiso   1.00
H12    H     0.57061   0.43047   0.65005   0.00000  Uiso   1.00
H13    H     0.64697   0.35420   0.43079   0.00000  Uiso   1.00
O13    O     0.71533   0.28577   0.46500   0.00000  Uiso   1.00
O14    O     0.71533   0.28577   0.53870   0.00000  Uiso   1.00
H14    H     0.64695   0.35420   0.57290   0.00000  Uiso   1.00
H15    H     0.43078   0.57037   0.35362   0.00000  Uiso   1.00
O15    O     0.46171   0.53934   0.28420   0.00000  Uiso   1.00
O16    O     0.53966   0.46137   0.28422   0.00000  Uiso   1.00
H16    H     0.57064   0.43048   0.35365   0.00000  Uiso   1.00
Ni2    Ni    0.50074   0.50048   0.50185   0.00000  Uiso   1.00
C65    C     0.14699   0.85394   0.46151   0.00000  Uiso   1.00
C66    C     0.18061   0.82035   0.48215   0.00000  Uiso   1.00
C67    C     0.18060   0.82035   0.52154   0.00000  Uiso   1.00
C68    C     0.14699   0.85394   0.54219   0.00000  Uiso   1.00
C69    C     0.11384   0.88705   0.52119   0.00000  Uiso   1.00
C70    C     0.11385   0.88705   0.48251   0.00000  Uiso   1.00
C71    C     0.07697   0.92391   0.47152   0.00000  Uiso   1.00
N17    N     0.05349   0.94738   0.50185   0.00000  Uiso   1.00
C72    C     0.07696   0.92391   0.53218   0.00000  Uiso   1.00
N18    N     0.06614   0.93473   0.56852   0.00000  Uiso   1.00
C73    C     0.03038   0.97049   0.57950   0.00000  Uiso   1.00
N19    N     0.00057   0.00032   0.55563   0.00000  Uiso   1.00
C74    C     0.97075   0.03014   0.57950   0.00000  Uiso   1.00
C75    C     0.98157   0.01931   0.61697   0.00000  Uiso   1.00
C76    C     0.01955   0.98132   0.61697   0.00000  Uiso   1.00
N20    N     0.94765   0.05325   0.50185   0.00000  Uiso   1.00
C77    C     0.92419   0.07673   0.53218   0.00000  Uiso   1.00
N21    N     0.93500   0.06591   0.56852   0.00000  Uiso   1.00
C78    C     0.88733   0.11362   0.52119   0.00000  Uiso   1.00
C79    C     0.88733   0.11361   0.48251   0.00000  Uiso   1.00
C80    C     0.92419   0.07672   0.47152   0.00000  Uiso   1.00
C81    C     0.04027   0.96060   0.65051   0.00000  Uiso   1.00
C82    C     0.02048   0.98041   0.68498   0.00000  Uiso   1.00
C83    C     0.98065   0.02024   0.68498   0.00000  Uiso   1.00
C84    C     0.96085   0.04004   0.65052   0.00000  Uiso   1.00
C85    C     0.85421   0.14675   0.46151   0.00000  Uiso   1.00
C86    C     0.82063   0.18036   0.48215   0.00000  Uiso   1.00
C87    C     0.82062   0.18037   0.52154   0.00000  Uiso   1.00
C88    C     0.85421   0.14676   0.54219   0.00000  Uiso   1.00
N22    N     0.00057   0.00031   0.44806   0.00000  Uiso   1.00
C89    C     0.97075   0.03013   0.42420   0.00000  Uiso   1.00
N23    N     0.93500   0.06590   0.43518   0.00000  Uiso   1.00
C90    C     0.98158   0.01929   0.38672   0.00000  Uiso   1.00
C91    C     0.01956   0.98131   0.38672   0.00000  Uiso   1.00
C92    C     0.03039   0.97048   0.42420   0.00000  Uiso   1.00
C93    C     0.04028   0.96058   0.35318   0.00000  Uiso   1.00
C94    C     0.02048   0.98038   0.31872   0.00000  Uiso   1.00
C95    C     0.98066   0.02021   0.31872   0.00000  Uiso   1.00
C96    C     0.96086   0.04002   0.35318   0.00000  Uiso   1.00
N24    N     0.06615   0.93472   0.43518   0.00000  Uiso   1.00
H17    H     0.14685   0.85409   0.43079   0.00000  Uiso   1.00
O17    O     0.21528   0.78572   0.46500   0.00000  Uiso   1.00
O18    O     0.21528   0.78572   0.53869   0.00000  Uiso   1.00
H18    H     0.14684   0.85409   0.57290   0.00000  Uiso   1.00
H19    H     0.07049   0.93037   0.65006   0.00000  Uiso   1.00
O19    O     0.03954   0.96134   0.71948   0.00000  Uiso   1.00
O20    O     0.96159   0.03931   0.71948   0.00000  Uiso   1.00
H20    H     0.93064   0.07027   0.65006   0.00000  Uiso   1.00
H21    H     0.85436   0.14660   0.43079   0.00000  Uiso   1.00
O21    O     0.78599   0.21503   0.46500   0.00000  Uiso   1.00
O22    O     0.78598   0.21503   0.53869   0.00000  Uiso   1.00
H22    H     0.85436   0.14662   0.57290   0.00000  Uiso   1.00
H23    H     0.07050   0.93035   0.35363   0.00000  Uiso   1.00
O23    O     0.03954   0.96131   0.28421   0.00000  Uiso   1.00
O24    O     0.96160   0.03928   0.28421   0.00000  Uiso   1.00
H24    H     0.93064   0.07025   0.35363   0.00000  Uiso   1.00
Ni3    Ni    0.00056   0.00031   0.50185   0.00000  Uiso   1.00
C97    C     0.35440   0.35373   0.04220   0.00000  Uiso   1.00
C98    C     0.32080   0.32013   0.02155   0.00000  Uiso   1.00
C99    C     0.32079   0.32013   0.98216   0.00000  Uiso   1.00
C100   C     0.35439   0.35373   0.96151   0.00000  Uiso   1.00
C101   C     0.38753   0.38685   0.98251   0.00000  Uiso   1.00
C102   C     0.38753   0.38685   0.02120   0.00000  Uiso   1.00
C103   C     0.42440   0.42373   0.03218   0.00000  Uiso   1.00
N25    N     0.44786   0.44721   0.00185   0.00000  Uiso   1.00
C104   C     0.42439   0.42373   0.97152   0.00000  Uiso   1.00
N26    N     0.43519   0.43457   0.93518   0.00000  Uiso   1.00
C105   C     0.47093   0.47034   0.92420   0.00000  Uiso   1.00
N27    N     0.50076   0.50016   0.94806   0.00000  Uiso   1.00
C106   C     0.53057   0.53000   0.92420   0.00000  Uiso   1.00
C107   C     0.51971   0.51919   0.88673   0.00000  Uiso   1.00
C108   C     0.48174   0.48120   0.88672   0.00000  Uiso   1.00
N28    N     0.55370   0.55307   0.00185   0.00000  Uiso   1.00
C109   C     0.57717   0.57655   0.97152   0.00000  Uiso   1.00
N29    N     0.56634   0.56575   0.93518   0.00000  Uiso   1.00
C110   C     0.61405   0.61341   0.98250   0.00000  Uiso   1.00
C111   C     0.61405   0.61341   0.02119   0.00000  Uiso   1.00
C112   C     0.57718   0.57654   0.03218   0.00000  Uiso   1.00
C113   C     0.46099   0.46051   0.85318   0.00000  Uiso   1.00
C114   C     0.48076   0.48035   0.81872   0.00000  Uiso   1.00
C115   C     0.52058   0.52019   0.81872   0.00000  Uiso   1.00
C116   C     0.54041   0.53995   0.85319   0.00000  Uiso   1.00
C117   C     0.64718   0.64654   0.04219   0.00000  Uiso   1.00
C118   C     0.68077   0.68015   0.02154   0.00000  Uiso   1.00
C119   C     0.68077   0.68015   0.98215   0.00000  Uiso   1.00
C120   C     0.64717   0.64655   0.96150   0.00000  Uiso   1.00
N30    N     0.50078   0.50015   0.05563   0.00000  Uiso   1.00
C121   C     0.53059   0.52999   0.07949   0.00000  Uiso   1.00
N31    N     0.56636   0.56574   0.06851   0.00000  Uiso   1.00
C122   C     0.51974   0.51918   0.11697   0.00000  Uiso   1.00
C123   C     0.48176   0.48120   0.11698   0.00000  Uiso   1.00
C124   C     0.47095   0.47034   0.07950   0.00000  Uiso   1.00
C125   C     0.46102   0.46051   0.15052   0.00000  Uiso   1.00
C126   C     0.48079   0.48035   0.18498   0.00000  Uiso   1.00
C127   C     0.52062   0.52018   0.18497   0.00000  Uiso   1.00
C128   C     0.54044   0.53994   0.15051   0.00000  Uiso   1.00
N32    N     0.43520   0.43457   0.06852   0.00000  Uiso   1.00
H25    H     0.35455   0.35388   0.07291   0.00000  Uiso   1.00
O25    O     0.28613   0.28549   0.03870   0.00000  Uiso   1.00
O26    O     0.28613   0.28549   0.96501   0.00000  Uiso   1.00
H26    H     0.35454   0.35388   0.93080   0.00000  Uiso   1.00
H27    H     0.43077   0.43028   0.85363   0.00000  Uiso   1.00
O27    O     0.46167   0.46132   0.78421   0.00000  Uiso   1.00
O28    O     0.53962   0.53929   0.78422   0.00000  Uiso   1.00
H28    H     0.57062   0.57018   0.85364   0.00000  Uiso   1.00
H29    H     0.64704   0.64639   0.07290   0.00000  Uiso   1.00
O29    O     0.71542   0.71481   0.03869   0.00000  Uiso   1.00
O30    O     0.71541   0.71481   0.96500   0.00000  Uiso   1.00
H30    H     0.64701   0.64640   0.93079   0.00000  Uiso   1.00
H31    H     0.43080   0.43028   0.15008   0.00000  Uiso   1.00
O31    O     0.46171   0.46132   0.21949   0.00000  Uiso   1.00
O32    O     0.53966   0.53929   0.21947   0.00000  Uiso   1.00
H32    H     0.57066   0.57017   0.15005   0.00000  Uiso   1.00
Ni4    Ni    0.50078   0.50015   0.00185   0.00000  Uiso   1.00
Zn1    Zn    0.00058   0.00030   0.25185   0.00000  Uiso   1.00
Zn2    Zn    0.50064   0.50033   0.75185   0.00000  Uiso   1.00
Zn3    Zn    0.50068   0.50033   0.25185   0.00000  Uiso   1.00
Zn4    Zn    0.00057   0.00033   0.75185   0.00000  Uiso   1.00
Cu1    Cu    0.25075   0.25017   0.00185   0.00000  Uiso   1.00
Cu2    Cu    0.25065   0.75039   0.50185   0.00000  Uiso   1.00
Cu3    Cu    0.75073   0.75019   0.00184   0.00000  Uiso   1.00
Cu4    Cu    0.75065   0.25039   0.50185   0.00000  Uiso   1.00
loop_
_geom_bond_atom_site_label_1
_geom_bond_atom_site_label_2
_geom_bond_distance
_geom_bond_site_symmetry_2
_ccdc_geom_bond_type
C1     C2      1.406   .     A
C1     C6      1.399   .     A
C1     H1      1.082   .     S
C2     C3      1.388   1_554 A
C2     O1      1.381   .     S
C3     C2      1.388   1_556 A
C3     C4      1.406   .     A
C3     O2      1.381   .     S
C4     C5      1.399   .     A
C4     H2      1.082   .     S
C5     C6      1.363   1_556 A
C5     C8      1.376   .     A
C6     C5      1.363   1_554 A
C6     C7      1.376   .     A
C7     N1      1.360   .     A
C7     N8      1.338   .     A
N1     C8      1.360   1_554 A
N1     Ni1     1.896   1_665 S
C8     N1      1.360   1_556 A
C8     N2      1.338   .     A
N2     C9      1.338   .     A
C9     N3      1.360   1_665 A
C9     C12     1.377   .     A
N3     C9      1.360   1_445 A
N3     C10     1.360   .     A
N3     Ni1     1.896   1_556 S
C10    C11     1.377   .     A
C10    N5      1.338   .     A
C11    C12     1.360   1_445 A
C11    C20     1.396   .     A
C12    C11     1.360   1_665 A
C12    C17     1.396   .     A
N4     C13     1.360   1_554 A
N4     C16     1.360   .     A
N4     Ni1     1.896   .     S
C13    N4      1.360   1_556 A
C13    N5      1.338   .     A
C13    C14     1.376   .     A
C14    C15     1.363   1_556 A
C14    C24     1.399   .     A
C15    C14     1.363   1_554 A
C15    C16     1.376   .     A
C15    C21     1.399   .     A
C16    N7      1.338   .     A
C17    C18     1.406   .     A
C17    H3      1.083   .     S
C18    C19     1.427   1_665 A
C18    O3      1.395   .     S
C19    C18     1.427   1_445 A
C19    C20     1.406   .     A
C19    O4      1.395   .     S
C20    H4      1.083   .     S
C21    C22     1.406   .     A
C21    H5      1.082   .     S
C22    C23     1.388   1_554 A
C22    O5      1.381   .     S
C23    C22     1.388   1_556 A
C23    C24     1.406   .     A
C23    O6      1.381   .     S
C24    H6      1.082   .     S
N6     C25     1.360   .     A
N6     C28     1.360   1_445 A
N6     Ni1     1.896   .     S
C25    N7      1.338   .     A
C25    C26     1.377   .     A
C26    C27     1.360   1_445 A
C26    C32     1.396   .     A
C27    C26     1.360   1_665 A
C27    C28     1.377   .     A
C27    C29     1.396   .     A
C28    N6      1.360   1_665 A
C28    N8      1.338   .     A
C29    C30     1.406   .     A
C29    H7      1.083   .     S
C30    C31     1.427   1_665 A
C30    O7      1.395   .     S
C31    C30     1.427   1_445 A
C31    C32     1.406   .     A
C31    O8      1.395   .     S
C32    H8      1.083   .     S
O1     Cu3     1.814   .     S
O2     Cu3     1.814   1_556 S
O3     Zn4     1.803   1_665 S
O4     Zn4     1.803   .     S
O5     Cu1     1.814   .     S
O6     Cu1     1.814   1_556 S
O7     Zn1     1.803   1_665 S
O8     Zn1     1.803   .     S
Ni1    N1      1.896   1_445 S
Ni1    N3      1.896   1_554 S
C33    C34     1.406   .     A
C33    C38     1.399   .     A
C33    H9      1.082   .     S
C34    C35     1.388   .     A
C34    O9      1.381   .     S
C35    C36     1.406   .     A
C35    O10     1.381   .     S
C36    C37     1.399   .     A
C36    H10     1.082   .     S
C37    C38     1.363   .     A
C37    C40     1.376   .     A
C38    C39     1.376   .     A
C39    N9      1.360   .     A
C39    N16     1.338   .     A
N9     C40     1.360   .     A
N9     Ni2     1.896   .     S
C40    N10     1.338   .     A
N10    C41     1.338   .     A
C41    N11     1.360   .     A
C41    C44     1.377   .     A
N11    C42     1.360   .     A
N11    Ni2     1.896   .     S
C42    C43     1.377   .     A
C42    N13     1.338   .     A
C43    C44     1.360   .     A
C43    C52     1.396   .     A
C44    C49     1.396   .     A
N12    C45     1.360   .     A
N12    C48     1.360   .     A
N12    Ni2     1.896   .     S
C45    N13     1.338   .     A
C45    C46     1.376   .     A
C46    C47     1.363   .     A
C46    C56     1.399   .     A
C47    C48     1.376   .     A
C47    C53     1.399   .     A
C48    N15     1.338   .     A
C49    C50     1.406   .     A
C49    H11     1.083   .     S
C50    C51     1.427   .     A
C50    O11     1.395   .     S
C51    C52     1.406   .     A
C51    O12     1.395   .     S
C52    H12     1.083   .     S
C53    C54     1.406   .     A
C53    H13     1.082   .     S
C54    C55     1.388   .     A
C54    O13     1.381   .     S
C55    C56     1.406   .     A
C55    O14     1.381   .     S
C56    H14     1.082   .     S
N14    C57     1.360   .     A
N14    C60     1.360   .     A
N14    Ni2     1.896   .     S
C57    N15     1.338   .     A
C57    C58     1.377   .     A
C58    C59     1.360   .     A
C58    C64     1.396   .     A
C59    C60     1.377   .     A
C59    C61     1.396   .     A
C60    N16     1.338   .     A
C61    C62     1.406   .     A
C61    H15     1.083   .     S
C62    C63     1.427   .     A
C62    O15     1.395   .     S
C63    C64     1.406   .     A
C63    O16     1.395   .     S
C64    H16     1.083   .     S
O9     Cu2     1.814   .     S
O10    Cu2     1.814   .     S
O11    Zn2     1.803   .     S
O12    Zn2     1.803   .     S
O13    Cu4     1.814   .     S
O14    Cu4     1.814   .     S
O15    Zn3     1.803   .     S
O16    Zn3     1.803   .     S
C65    C66     1.406   .     A
C65    C70     1.399   .     A
C65    H17     1.082   .     S
C66    C67     1.388   .     A
C66    O17     1.381   .     S
C67    C68     1.406   .     A
C67    O18     1.381   .     S
C68    C69     1.399   .     A
C68    H18     1.082   .     S
C69    C70     1.363   .     A
C69    C72     1.376   .     A
C70    C71     1.376   .     A
C71    N17     1.360   .     A
C71    N24     1.338   .     A
N17    C72     1.360   .     A
N17    Ni3     1.896   1_565 S
C72    N18     1.338   .     A
N18    C73     1.338   .     A
C73    N19     1.360   1_565 A
C73    C76     1.377   .     A
N19    C73     1.360   1_545 A
N19    C74     1.360   1_455 A
N19    Ni3     1.896   .     S
C74    N19     1.360   1_655 A
C74    C75     1.377   .     A
C74    N21     1.338   .     A
C75    C76     1.360   1_645 A
C75    C84     1.396   .     A
C76    C75     1.360   1_465 A
C76    C81     1.396   .     A
N20    C77     1.360   .     A
N20    C80     1.360   .     A
N20    Ni3     1.896   1_655 S
C77    N21     1.338   .     A
C77    C78     1.376   .     A
C78    C79     1.363   .     A
C78    C88     1.399   .     A
C79    C80     1.376   .     A
C79    C85     1.399   .     A
C80    N23     1.338   .     A
C81    C82     1.406   .     A
C81    H19     1.083   .     S
C82    C83     1.427   1_465 A
C82    O19     1.395   .     S
C83    C82     1.427   1_645 A
C83    C84     1.406   .     A
C83    O20     1.395   .     S
C84    H20     1.083   .     S
C85    C86     1.406   .     A
C85    H21     1.082   .     S
C86    C87     1.388   .     A
C86    O21     1.381   .     S
C87    C88     1.406   .     A
C87    O22     1.381   .     S
C88    H22     1.082   .     S
N22    C89     1.360   1_455 A
N22    C92     1.360   1_545 A
N22    Ni3     1.896   .     S
C89    N22     1.360   1_655 A
C89    N23     1.338   .     A
C89    C90     1.377   .     A
C90    C91     1.360   1_645 A
C90    C96     1.396   .     A
C91    C90     1.360   1_465 A
C91    C92     1.377   .     A
C91    C93     1.396   .     A
C92    N22     1.360   1_565 A
C92    N24     1.338   .     A
C93    C94     1.406   .     A
C93    H23     1.083   .     S
C94    C95     1.427   1_465 A
C94    O23     1.395   .     S
C95    C94     1.427   1_645 A
C95    C96     1.406   .     A
C95    O24     1.395   .     S
C96    H24     1.083   .     S
O17    Cu2     1.814   .     S
O18    Cu2     1.814   .     S
O19    Zn4     1.803   1_565 S
O20    Zn4     1.803   1_655 S
O21    Cu4     1.814   .     S
O22    Cu4     1.814   .     S
O23    Zn1     1.803   1_565 S
O24    Zn1     1.803   1_655 S
Ni3    N20     1.896   1_455 S
Ni3    N17     1.896   1_545 S
C97    C98     1.406   .     A
C97    C102    1.399   .     A
C97    H25     1.082   .     S
C98    C99     1.388   1_554 A
C98    O25     1.381   .     S
C99    C98     1.388   1_556 A
C99    C100    1.406   .     A
C99    O26     1.381   .     S
C100   C101    1.399   .     A
C100   H26     1.082   .     S
C101   C102    1.363   1_556 A
C101   C104    1.376   .     A
C102   C101    1.363   1_554 A
C102   C103    1.376   .     A
C103   N25     1.360   .     A
C103   N32     1.338   .     A
N25    C104    1.360   1_554 A
N25    Ni4     1.896   .     S
C104   N25     1.360   1_556 A
C104   N26     1.338   .     A
N26    C105    1.338   .     A
C105   N27     1.360   .     A
C105   C108    1.377   .     A
N27    C106    1.360   .     A
N27    Ni4     1.896   1_556 S
C106   C107    1.377   .     A
C106   N29     1.338   .     A
C107   C108    1.360   .     A
C107   C116    1.396   .     A
C108   C113    1.396   .     A
N28    C109    1.360   1_554 A
N28    C112    1.360   .     A
N28    Ni4     1.896   .     S
C109   N28     1.360   1_556 A
C109   N29     1.338   .     A
C109   C110    1.376   .     A
C110   C111    1.363   1_556 A
C110   C120    1.399   .     A
C111   C110    1.363   1_554 A
C111   C112    1.376   .     A
C111   C117    1.399   .     A
C112   N31     1.338   .     A
C113   C114    1.406   .     A
C113   H27     1.083   .     S
C114   C115    1.427   .     A
C114   O27     1.395   .     S
C115   C116    1.406   .     A
C115   O28     1.395   .     S
C116   H28     1.083   .     S
C117   C118    1.406   .     A
C117   H29     1.082   .     S
C118   C119    1.388   1_554 A
C118   O29     1.381   .     S
C119   C118    1.388   1_556 A
C119   C120    1.406   .     A
C119   O30     1.381   .     S
C120   H30     1.082   .     S
N30    C121    1.360   .     A
N30    C124    1.360   .     A
N30    Ni4     1.896   .     S
C121   N31     1.338   .     A
C121   C122    1.377   .     A
C122   C123    1.360   .     A
C122   C128    1.396   .     A
C123   C124    1.377   .     A
C123   C125    1.396   .     A
C124   N32     1.338   .     A
C125   C126    1.406   .     A
C125   H31     1.083   .     S
C126   C127    1.427   .     A
C126   O31     1.395   .     S
C127   C128    1.406   .     A
C127   O32     1.395   .     S
C128   H32     1.083   .     S
O25    Cu1     1.814   .     S
O26    Cu1     1.814   1_556 S
O27    Zn2     1.803   .     S
O28    Zn2     1.803   .     S
O29    Cu3     1.814   .     S
O30    Cu3     1.814   1_556 S
O31    Zn3     1.803   .     S
O32    Zn3     1.803   .     S
Ni4    N27     1.896   1_554 S
Zn1    O24     1.803   1_455 S
Zn1    O23     1.803   1_545 S
Zn1    O7      1.803   1_445 S
Zn4    O3      1.803   1_445 S
Zn4    O20     1.803   1_455 S
Zn4    O19     1.803   1_545 S
Cu1    O6      1.814   1_554 S
Cu1    O26     1.814   1_554 S
Cu3    O2      1.814   1_554 S
Cu3    O30     1.814   1_554 S
