data_cds-PcM_O-Zntet
_audit_creation_date              2021-11-06
_audit_creation_method            'Materials Studio'
_symmetry_space_group_name_H-M    'P1'
_symmetry_Int_Tables_number       1
_symmetry_cell_setting            triclinic
loop_
_symmetry_equiv_pos_as_xyz
  x,y,z
_cell_length_a                    17.9084
_cell_length_b                    17.9084
_cell_length_c                    35.2442
_cell_angle_alpha                 89.9959
_cell_angle_beta                  90.0131
_cell_angle_gamma                 89.9918
loop_
_atom_site_label
_atom_site_type_symbol
_atom_site_fract_x
_atom_site_fract_y
_atom_site_fract_z
_atom_site_U_iso_or_equiv
_atom_site_adp_type
_atom_site_occupancy
C1     C     0.92069   0.00011   0.14873   0.00000  Uiso   1.00
C2     C     0.96030   0.00011   0.18319   0.00000  Uiso   1.00
C3     C     0.03996   0.00011   0.18319   0.00000  Uiso   1.00
C4     C     0.07955   0.00010   0.14873   0.00000  Uiso   1.00
C5     C     0.03809   0.00010   0.11519   0.00000  Uiso   1.00
C6     C     0.96212   0.00010   0.11519   0.00000  Uiso   1.00
C7     C     0.94044   0.00009   0.07771   0.00000  Uiso   1.00
N1     N     0.00007   0.00008   0.05385   0.00000  Uiso   1.00
C8     C     0.05973   0.00009   0.07771   0.00000  Uiso   1.00
N2     N     0.13125   1.00008   0.06673   0.00000  Uiso   1.00
C9     C     0.15286   1.00007   0.03039   0.00000  Uiso   1.00
N3     N     0.10590   0.00007   0.00006   0.00000  Uiso   1.00
C10    C     0.15283   0.00006   0.96973   0.00000  Uiso   1.00
C11    C     0.22658   0.00006   0.98072   0.00000  Uiso   1.00
C12    C     0.22660   1.00006   0.01941   0.00000  Uiso   1.00
N4     N     0.00003   0.00006   0.94628   0.00000  Uiso   1.00
C13    C     0.05966   0.00005   0.92242   0.00000  Uiso   1.00
N5     N     0.13119   0.00005   0.93340   0.00000  Uiso   1.00
C14    C     0.03798   0.00005   0.88494   0.00000  Uiso   1.00
C15    C     0.96201   0.00005   0.88494   0.00000  Uiso   1.00
C16    C     0.94037   0.00006   0.92241   0.00000  Uiso   1.00
C17    C     0.29287   1.00006   0.04041   0.00000  Uiso   1.00
C18    C     0.36005   1.00006   0.01976   0.00000  Uiso   1.00
C19    C     0.36004   1.00005   0.98037   0.00000  Uiso   1.00
C20    C     0.29283   0.00005   0.95972   0.00000  Uiso   1.00
C21    C     0.92055   0.00005   0.85140   0.00000  Uiso   1.00
C22    C     0.96014   0.00005   0.81694   0.00000  Uiso   1.00
C23    C     0.03980   0.00005   0.81694   0.00000  Uiso   1.00
C24    C     0.07941   0.00004   0.85140   0.00000  Uiso   1.00
N6     N     0.89420   0.00007   0.00006   0.00000  Uiso   1.00
C25    C     0.84724   1.00006   0.96973   0.00000  Uiso   1.00
N7     N     0.86885   1.00006   0.93340   0.00000  Uiso   1.00
C26    C     0.77350   1.00006   0.98072   0.00000  Uiso   1.00
C27    C     0.77352   0.00007   0.01941   0.00000  Uiso   1.00
C28    C     0.84727   0.00008   0.03039   0.00000  Uiso   1.00
C29    C     0.70727   0.00007   0.04041   0.00000  Uiso   1.00
C30    C     0.64006   0.00006   0.01976   0.00000  Uiso   1.00
C31    C     0.64004   1.00006   0.98037   0.00000  Uiso   1.00
C32    C     0.70723   1.00006   0.95972   0.00000  Uiso   1.00
N8     N     0.86891   0.00008   0.06673   0.00000  Uiso   1.00
H1     H     0.86024   0.00011   0.14827   0.00000  Uiso   1.00
O1     O     0.92218   0.00012   0.21770   0.00000  Uiso   1.00
O2     O     0.07810   0.00011   0.21770   0.00000  Uiso   1.00
H2     H     0.13999   0.00010   0.14828   0.00000  Uiso   1.00
H3     H     0.29258   1.00007   0.07112   0.00000  Uiso   1.00
O3     O     0.42937   1.00005   0.03691   0.00000  Uiso   1.00
O4     O     0.42934   1.00004   0.96322   0.00000  Uiso   1.00
H4     H     0.29252   0.00004   0.92901   0.00000  Uiso   1.00
H5     H     0.86011   1.00006   0.85185   0.00000  Uiso   1.00
O5     O     0.92200   0.00005   0.78243   0.00000  Uiso   1.00
O6     O     0.07791   0.00004   0.78243   0.00000  Uiso   1.00
H6     H     0.13986   0.00004   0.85185   0.00000  Uiso   1.00
H7     H     0.70758   0.00008   0.07112   0.00000  Uiso   1.00
O7     O     0.57076   1.00006   0.03691   0.00000  Uiso   1.00
O8     O     0.57073   1.00005   0.96322   0.00000  Uiso   1.00
H8     H     0.70752   1.00005   0.92901   0.00000  Uiso   1.00
Ni1    Ni    0.00005   0.00006   0.00006   0.00000  Uiso   1.00
C33    C     0.99994   0.92063   0.64873   0.00000  Uiso   1.00
C34    C     0.99993   0.96023   0.68319   0.00000  Uiso   1.00
C35    C     0.99993   0.03988   0.68319   0.00000  Uiso   1.00
C36    C     0.99993   0.07949   0.64873   0.00000  Uiso   1.00
C37    C     0.99994   0.03805   0.61519   0.00000  Uiso   1.00
C38    C     0.99995   0.96208   0.61519   0.00000  Uiso   1.00
C39    C     0.99998   0.94042   0.57771   0.00000  Uiso   1.00
N9     N     1.00000   0.00007   0.55385   0.00000  Uiso   1.00
C40    C     0.99997   0.05971   0.57771   0.00000  Uiso   1.00
N10    N    -0.00001   0.13124   0.56673   0.00000  Uiso   1.00
C41    C     0.00003   0.15287   0.53039   0.00000  Uiso   1.00
N11    N     1.00006   0.10593   0.50006   0.00000  Uiso   1.00
C42    C     1.00008   0.15288   0.46973   0.00000  Uiso   1.00
C43    C     0.00008   0.22662   0.48072   0.00000  Uiso   1.00
C44    C     0.00005   0.22661   0.51941   0.00000  Uiso   1.00
N12    N     1.00009   0.00009   0.44628   0.00000  Uiso   1.00
C45    C     1.00010   0.05974   0.42242   0.00000  Uiso   1.00
N13    N     1.00010   0.13126   0.43340   0.00000  Uiso   1.00
C46    C     1.00012   0.03808   0.38494   0.00000  Uiso   1.00
C47    C     0.00013   0.96211   0.38494   0.00000  Uiso   1.00
C48    C     0.00010   0.94044   0.42242   0.00000  Uiso   1.00
C49    C     0.00003   0.29287   0.54041   0.00000  Uiso   1.00
C50    C     0.00004   0.36007   0.51976   0.00000  Uiso   1.00
C51    C     0.00007   0.36008   0.48037   0.00000  Uiso   1.00
C52    C     0.00009   0.29288   0.45972   0.00000  Uiso   1.00
C53    C     0.00014   0.92067   0.35140   0.00000  Uiso   1.00
C54    C     1.00016   0.96028   0.31694   0.00000  Uiso   1.00
C55    C     1.00015   0.03993   0.31694   0.00000  Uiso   1.00
C56    C     1.00014   0.07953   0.35140   0.00000  Uiso   1.00
N14    N     1.00007   0.89423   0.50006   0.00000  Uiso   1.00
C57    C     0.00009   0.84729   0.46973   0.00000  Uiso   1.00
N15    N     0.00011   0.86892   0.43340   0.00000  Uiso   1.00
C58    C     0.00009   0.77354   0.48072   0.00000  Uiso   1.00
C59    C     1.00006   0.77354   0.51941   0.00000  Uiso   1.00
C60    C     1.00004   0.84728   0.53039   0.00000  Uiso   1.00
C61    C     1.00003   0.70727   0.54041   0.00000  Uiso   1.00
C62    C     0.00004   0.64008   0.51976   0.00000  Uiso   1.00
C63    C     0.00007   0.64009   0.48037   0.00000  Uiso   1.00
C64    C     0.00010   0.70728   0.45972   0.00000  Uiso   1.00
N16    N     1.00000   0.86890   0.56673   0.00000  Uiso   1.00
H9     H     0.99995   0.86018   0.64828   0.00000  Uiso   1.00
O9     O     0.99994   0.92209   0.71770   0.00000  Uiso   1.00
O10    O     0.99992   0.07801   0.71770   0.00000  Uiso   1.00
H10    H    -0.00007   0.13993   0.64828   0.00000  Uiso   1.00
H11    H    -0.00000   0.29257   0.57112   0.00000  Uiso   1.00
O11    O     0.00001   0.42938   0.53691   0.00000  Uiso   1.00
O12    O     0.00007   0.42939   0.46322   0.00000  Uiso   1.00
H12    H     0.00011   0.29259   0.42901   0.00000  Uiso   1.00
H13    H     0.00014   0.86022   0.35185   0.00000  Uiso   1.00
O13    O     1.00016   0.92215   0.28243   0.00000  Uiso   1.00
O14    O     1.00016   0.07807   0.28243   0.00000  Uiso   1.00
H14    H     1.00014   0.13997   0.35185   0.00000  Uiso   1.00
H15    H     1.00000   0.70757   0.57112   0.00000  Uiso   1.00
O15    O     0.00001   0.57077   0.53691   0.00000  Uiso   1.00
O16    O     0.00008   0.57078   0.46322   0.00000  Uiso   1.00
H16    H     0.00012   0.70759   0.42901   0.00000  Uiso   1.00
Ni2    Ni    1.00005   0.00008   0.50006   0.00000  Uiso   1.00
Zn1    Zn    1.00015   0.00011   0.25006   0.00000  Uiso   1.00
Zn2    Zn    0.99994   0.00005   0.75006   0.00000  Uiso   1.00
Cu1    Cu    0.50005   1.00003   0.00006   0.00000  Uiso   1.00
Cu2    Cu    0.00003   0.50008   0.50006   0.00000  Uiso   1.00
loop_
_geom_bond_atom_site_label_1
_geom_bond_atom_site_label_2
_geom_bond_distance
_geom_bond_site_symmetry_2
_ccdc_geom_bond_type
C1     C2      1.406   .     A
C1     C6      1.396   .     A
C1     H1      1.083   .     S
C2     C3      1.427   1_655 A
C2     O1      1.395   .     S
C3     C2      1.427   1_455 A
C3     C4      1.406   .     A
C3     O2      1.395   .     S
C4     C5      1.396   .     A
C4     H2      1.083   .     S
C5     C6      1.360   1_455 A
C5     C8      1.377   .     A
C6     C5      1.360   1_655 A
C6     C7      1.377   .     A
C7     N1      1.360   1_655 A
C7     N8      1.338   .     A
N1     C7      1.360   1_455 A
N1     C8      1.360   .     A
N1     Ni1     1.896   .     S
C8     N2      1.338   1_545 A
N2     C8      1.338   1_565 A
N2     C9      1.338   .     A
C9     N3      1.360   1_565 A
C9     C12     1.376   .     A
N3     C9      1.360   1_545 A
N3     C10     1.360   1_554 A
N3     Ni1     1.896   .     S
C10    N3      1.360   1_556 A
C10    C11     1.376   .     A
C10    N5      1.338   .     A
C11    C12     1.363   1_546 A
C11    C20     1.399   .     A
C12    C11     1.363   1_564 A
C12    C17     1.399   .     A
N4     C13     1.360   .     A
N4     C16     1.360   1_455 A
N4     Ni1     1.896   1_556 S
C13    N5      1.338   .     A
C13    C14     1.377   .     A
C14    C15     1.360   1_455 A
C14    C24     1.396   .     A
C15    C14     1.360   1_655 A
C15    C16     1.377   .     A
C15    C21     1.396   .     A
C16    N4      1.360   1_655 A
C16    N7      1.338   1_545 A
C17    C18     1.406   .     A
C17    H3      1.082   .     S
C18    C19     1.388   1_554 A
C18    O3      1.381   .     S
C19    C18     1.388   1_556 A
C19    C20     1.406   1_565 A
C19    O4      1.381   .     S
C20    C19     1.406   1_545 A
C20    H4      1.082   .     S
C21    C22     1.406   .     A
C21    H5      1.083   1_545 S
C22    C23     1.427   1_655 A
C22    O5      1.395   .     S
C23    C22     1.427   1_455 A
C23    C24     1.406   .     A
C23    O6      1.395   .     S
C24    H6      1.083   .     S
N6     C25     1.360   1_544 A
N6     C28     1.360   .     A
N6     Ni1     1.896   1_655 S
C25    N6      1.360   1_566 A
C25    N7      1.338   .     A
C25    C26     1.376   .     A
N7     C16     1.338   1_565 A
C26    C27     1.363   1_566 A
C26    C32     1.399   .     A
C27    C26     1.363   1_544 A
C27    C28     1.376   .     A
C27    C29     1.399   .     A
C28    N8      1.338   .     A
C29    C30     1.406   .     A
C29    H7      1.082   .     S
C30    C31     1.388   1_544 A
C30    O7      1.381   1_545 S
C31    C30     1.388   1_566 A
C31    C32     1.406   .     A
C31    O8      1.381   .     S
C32    H8      1.082   .     S
O1     Zn1     1.803   .     S
O2     Zn1     1.803   1_455 S
O3     Cu1     1.814   .     S
O4     Cu1     1.814   1_556 S
H5     C21     1.083   1_565 S
O5     Zn2     1.803   .     S
O6     Zn2     1.803   1_455 S
O7     C30     1.381   1_565 S
O7     Cu1     1.814   .     S
O8     Cu1     1.814   1_556 S
Ni1    N6      1.896   1_455 S
Ni1    N4      1.896   1_554 S
C33    C34     1.406   .     A
C33    C38     1.396   .     A
C33    H9      1.083   .     S
C34    C35     1.427   1_565 A
C34    O9      1.395   .     S
C35    C34     1.427   1_545 A
C35    C36     1.406   .     A
C35    O10     1.395   .     S
C36    C37     1.396   .     A
C36    H10     1.083   1_655 S
C37    C38     1.360   1_545 A
C37    C40     1.377   .     A
C38    C37     1.360   1_565 A
C38    C39     1.377   .     A
C39    N9      1.360   1_565 A
C39    N16     1.338   .     A
N9     C39     1.360   1_545 A
N9     C40     1.360   .     A
N9     Ni2     1.896   .     S
C40    N10     1.338   1_655 A
N10    C40     1.338   1_455 A
N10    C41     1.338   .     A
C41    N11     1.360   1_455 A
C41    C44     1.376   .     A
N11    C41     1.360   1_655 A
N11    C42     1.360   .     A
N11    Ni2     1.896   .     S
C42    C43     1.376   1_655 A
C42    N13     1.338   .     A
C43    C42     1.376   1_455 A
C43    C44     1.363   .     A
C43    C52     1.399   .     A
C44    C49     1.399   .     A
N12    C45     1.360   .     A
N12    C48     1.360   1_645 A
N12    Ni2     1.896   .     S
C45    N13     1.338   .     A
C45    C46     1.377   .     A
C46    C47     1.360   1_645 A
C46    C56     1.396   .     A
C47    C46     1.360   1_465 A
C47    C48     1.377   .     A
C47    C53     1.396   .     A
C48    N12     1.360   1_465 A
C48    N15     1.338   .     A
C49    C50     1.406   .     A
C49    H11     1.082   .     S
C50    C51     1.388   .     A
C50    O11     1.381   .     S
C51    C52     1.406   .     A
C51    O12     1.381   .     S
C52    H12     1.082   .     S
C53    C54     1.406   1_455 A
C53    H13     1.083   .     S
C54    C53     1.406   1_655 A
C54    C55     1.427   1_565 A
C54    O13     1.395   .     S
C55    C54     1.427   1_545 A
C55    C56     1.406   .     A
C55    O14     1.395   .     S
C56    H14     1.083   .     S
N14    C57     1.360   1_655 A
N14    C60     1.360   .     A
N14    Ni2     1.896   1_565 S
C57    N14     1.360   1_455 A
C57    N15     1.338   .     A
C57    C58     1.376   .     A
C58    C59     1.363   1_455 A
C58    C64     1.399   .     A
C59    C58     1.363   1_655 A
C59    C60     1.376   .     A
C59    C61     1.399   .     A
C60    N16     1.338   .     A
C61    C62     1.406   1_655 A
C61    H15     1.082   .     S
C62    C61     1.406   1_455 A
C62    C63     1.388   .     A
C62    O15     1.381   .     S
C63    C64     1.406   .     A
C63    O16     1.381   .     S
C64    H16     1.082   .     S
O9     Zn2     1.803   1_565 S
O10    Zn2     1.803   .     S
H10    C36     1.083   1_455 S
O11    Cu2     1.814   .     S
O12    Cu2     1.814   .     S
O13    Zn1     1.803   1_565 S
O14    Zn1     1.803   .     S
O15    Cu2     1.814   .     S
O16    Cu2     1.814   .     S
Ni2    N14     1.896   1_545 S
Zn1    O13     1.803   1_545 S
Zn1    O2      1.803   1_655 S
Zn2    O6      1.803   1_655 S
Zn2    O9      1.803   1_545 S
Cu1    O8      1.814   1_554 S
Cu1    O4      1.814   1_554 S
