data_cds-PcMN_O-Zntet
_audit_creation_date              2021-11-06
_audit_creation_method            'Materials Studio'
_symmetry_space_group_name_H-M    'P1'
_symmetry_Int_Tables_number       1
_symmetry_cell_setting            triclinic
loop_
_symmetry_equiv_pos_as_xyz
  x,y,z
_cell_length_a                    22.7688
_cell_length_b                    22.7688
_cell_length_c                    44.9726
_cell_angle_alpha                 89.9881
_cell_angle_beta                  89.9896
_cell_angle_gamma                 90.0030
loop_
_atom_site_label
_atom_site_type_symbol
_atom_site_fract_x
_atom_site_fract_y
_atom_site_fract_z
_atom_site_U_iso_or_equiv
_atom_site_adp_type
_atom_site_occupancy
C1     C     0.93774   0.00004   0.88610   0.00000  Uiso   1.00
C2     C     0.96873   0.00003   0.85891   0.00000  Uiso   1.00
C3     C     0.03161   0.00003   0.85891   0.00000  Uiso   1.00
C4     C     0.06259   0.00004   0.88610   0.00000  Uiso   1.00
C5     C     0.02998   0.00005   0.91234   0.00000  Uiso   1.00
C6     C     0.97032   0.00005   0.91235   0.00000  Uiso   1.00
C7     C     0.95324   0.00007   0.94171   0.00000  Uiso   1.00
N1     N     1.00014   0.00008   0.96041   0.00000  Uiso   1.00
C8     C     0.04704   0.00007   0.94171   0.00000  Uiso   1.00
N2     N     0.10330   0.00008   0.95032   0.00000  Uiso   1.00
C9     C     0.12029   0.00010   0.97880   0.00000  Uiso   1.00
N3     N     0.08335   0.00011   0.00255   0.00000  Uiso   1.00
C10    C     0.12028   0.00012   0.02630   0.00000  Uiso   1.00
C11    C     0.17829   0.00012   0.01766   0.00000  Uiso   1.00
C12    C     0.17830   0.00010   0.98744   0.00000  Uiso   1.00
N4     N     0.00011   0.00014   0.04469   0.00000  Uiso   1.00
C13    C     0.04700   0.00016   0.06339   0.00000  Uiso   1.00
N5     N     0.10326   0.00014   0.05478   0.00000  Uiso   1.00
C14    C     0.02992   0.00018   0.09275   0.00000  Uiso   1.00
C15    C     0.97026   0.00018   0.09275   0.00000  Uiso   1.00
C16    C     0.95320   0.00016   0.06339   0.00000  Uiso   1.00
C17    C     0.23013   0.00009   0.97092   0.00000  Uiso   1.00
C18    C     0.28380   0.00009   0.98660   0.00000  Uiso   1.00
C19    C     0.28379   0.00011   0.01850   0.00000  Uiso   1.00
C20    C     0.23011   0.00012   0.03418   0.00000  Uiso   1.00
C21    C     0.93766   0.00019   0.11900   0.00000  Uiso   1.00
C22    C     0.96863   0.00020   0.14619   0.00000  Uiso   1.00
C23    C     0.03151   0.00020   0.14618   0.00000  Uiso   1.00
C24    C     0.06251   0.00019   0.11900   0.00000  Uiso   1.00
N6     N     0.91689   0.00011   0.00255   0.00000  Uiso   1.00
C25    C     0.87995   0.00013   0.02630   0.00000  Uiso   1.00
N7     N     0.89694   0.00015   0.05478   0.00000  Uiso   1.00
C26    C     0.82194   0.00012   0.01766   0.00000  Uiso   1.00
C27    C     0.82195   0.00009   0.98744   0.00000  Uiso   1.00
C28    C     0.87996   0.00009   0.97880   0.00000  Uiso   1.00
C29    C     0.77013   0.00008   0.97092   0.00000  Uiso   1.00
C30    C     0.71645   0.00009   0.98660   0.00000  Uiso   1.00
C31    C     0.71644   0.00011   0.01850   0.00000  Uiso   1.00
C32    C     0.77011   0.00013   0.03418   0.00000  Uiso   1.00
N8     N     0.89698   0.00007   0.95032   0.00000  Uiso   1.00
H1     H     0.89016   0.00004   0.88675   0.00000  Uiso   1.00
H2     H     0.11016   0.00005   0.88675   0.00000  Uiso   1.00
H3     H     0.22886   0.00007   0.94684   0.00000  Uiso   1.00
H4     H     0.22882   0.00014   0.05826   0.00000  Uiso   1.00
H5     H     0.89008   0.00019   0.11835   0.00000  Uiso   1.00
H6     H     0.11008   0.00018   0.11835   0.00000  Uiso   1.00
H7     H     0.77142   0.00006   0.94684   0.00000  Uiso   1.00
H8     H     0.77138   0.00015   0.05827   0.00000  Uiso   1.00
C33    C     0.66275   0.00007   0.97122   0.00000  Uiso   1.00
C34    C     0.61024   0.00008   0.98727   0.00000  Uiso   1.00
C35    C     0.61023   0.00011   0.01783   0.00000  Uiso   1.00
C36    C     0.66272   0.00012   0.03389   0.00000  Uiso   1.00
C37    C     0.93826   0.00002   0.83181   0.00000  Uiso   1.00
C38    C     0.96918   0.00002   0.80497   0.00000  Uiso   1.00
C39    C     0.03120   0.00002   0.80497   0.00000  Uiso   1.00
C40    C     0.06210   0.00002   0.83180   0.00000  Uiso   1.00
C41    C     0.33752   0.00008   0.97122   0.00000  Uiso   1.00
C42    C     0.39001   0.00008   0.98727   0.00000  Uiso   1.00
C43    C     0.39000   0.00010   0.01783   0.00000  Uiso   1.00
C44    C     0.33749   0.00012   0.03388   0.00000  Uiso   1.00
C45    C     0.93814   0.00021   0.17330   0.00000  Uiso   1.00
C46    C     0.96904   0.00021   0.20013   0.00000  Uiso   1.00
C47    C     0.03106   0.00021   0.20013   0.00000  Uiso   1.00
C48    C     0.06198   0.00021   0.17329   0.00000  Uiso   1.00
H9     H     0.66158   0.00005   0.94713   0.00000  Uiso   1.00
O1     O     0.55578   0.00007   0.97375   0.00000  Uiso   1.00
O2     O     0.55576   0.00011   0.03135   0.00000  Uiso   1.00
H10    H     0.66154   0.00014   0.05797   0.00000  Uiso   1.00
H11    H     0.89067   0.00002   0.83144   0.00000  Uiso   1.00
O3     O     0.93907   0.00002   0.77795   0.00000  Uiso   1.00
O4     O     0.06132   0.00002   0.77794   0.00000  Uiso   1.00
H12    H     0.10969   0.00003   0.83143   0.00000  Uiso   1.00
H13    H     0.33870   0.00007   0.94713   0.00000  Uiso   1.00
O5     O     0.44448   0.00007   0.97375   0.00000  Uiso   1.00
O6     O     0.44446   0.00011   0.03135   0.00000  Uiso   1.00
H14    H     0.33866   0.00013   0.05797   0.00000  Uiso   1.00
H15    H     0.89055   0.00021   0.17367   0.00000  Uiso   1.00
O7     O     0.93892   0.00021   0.22715   0.00000  Uiso   1.00
O8     O     0.06117   0.00022   0.22715   0.00000  Uiso   1.00
H16    H     0.10957   0.00021   0.17367   0.00000  Uiso   1.00
Ni1    Ni    0.00012   0.00010   0.00255   0.00000  Uiso   1.00
C49    C     0.00009   0.77012   0.47092   0.00000  Uiso   1.00
C50    C     0.00010   0.71644   0.48660   0.00000  Uiso   1.00
C51    C     0.00012   0.71643   0.51850   0.00000  Uiso   1.00
C52    C     0.00013   0.77010   0.53418   0.00000  Uiso   1.00
C53    C     0.00012   0.82193   0.51766   0.00000  Uiso   1.00
C54    C     0.00010   0.82194   0.48744   0.00000  Uiso   1.00
C55    C     0.00010   0.87995   0.47880   0.00000  Uiso   1.00
N9     N     0.00011   0.91688   0.50255   0.00000  Uiso   1.00
C56    C     0.00013   0.87994   0.52630   0.00000  Uiso   1.00
N10    N     0.00014   0.89693   0.55478   0.00000  Uiso   1.00
C57    C     0.00014   0.95319   0.56339   0.00000  Uiso   1.00
N11    N     0.00014   0.00009   0.54469   0.00000  Uiso   1.00
C58    C     0.00015   0.04699   0.56339   0.00000  Uiso   1.00
C59    C     0.00016   0.02991   0.59275   0.00000  Uiso   1.00
C60    C     0.00016   0.97025   0.59276   0.00000  Uiso   1.00
N12    N     0.00012   0.08334   0.50255   0.00000  Uiso   1.00
C61    C     0.00013   0.12027   0.52630   0.00000  Uiso   1.00
N13    N     0.00015   0.10325   0.55478   0.00000  Uiso   1.00
C62    C     0.00013   0.17828   0.51766   0.00000  Uiso   1.00
C63    C     0.00011   0.17829   0.48744   0.00000  Uiso   1.00
C64    C     0.00010   0.12029   0.47880   0.00000  Uiso   1.00
C65    C     0.00017   0.93764   0.61900   0.00000  Uiso   1.00
C66    C     0.00019   0.96862   0.64619   0.00000  Uiso   1.00
C67    C     0.00019   0.03150   0.64618   0.00000  Uiso   1.00
C68    C     0.00018   0.06249   0.61900   0.00000  Uiso   1.00
C69    C     0.00010   0.23013   0.47092   0.00000  Uiso   1.00
C70    C     0.00010   0.28379   0.48660   0.00000  Uiso   1.00
C71    C     0.00012   0.28378   0.51850   0.00000  Uiso   1.00
C72    C     0.00014   0.23010   0.53418   0.00000  Uiso   1.00
N14    N     0.00008   1.00013   0.46041   0.00000  Uiso   1.00
C73    C     0.00007   0.04704   0.44171   0.00000  Uiso   1.00
N15    N     0.00008   0.10329   0.45032   0.00000  Uiso   1.00
C74    C     0.00006   0.02998   0.41234   0.00000  Uiso   1.00
C75    C     0.00005   0.97032   0.41234   0.00000  Uiso   1.00
C76    C     0.00007   0.95324   0.44171   0.00000  Uiso   1.00
C77    C     0.00004   0.93773   0.38610   0.00000  Uiso   1.00
C78    C     0.00004   0.96873   0.35891   0.00000  Uiso   1.00
C79    C     0.00004   0.03161   0.35891   0.00000  Uiso   1.00
C80    C     0.00005   0.06258   0.38610   0.00000  Uiso   1.00
N16    N     0.00008   0.89697   0.45032   0.00000  Uiso   1.00
H17    H     0.00007   0.77142   0.44684   0.00000  Uiso   1.00
H18    H     0.00015   0.77137   0.55826   0.00000  Uiso   1.00
H19    H     0.00017   0.89007   0.61835   0.00000  Uiso   1.00
H20    H     0.00018   0.11006   0.61834   0.00000  Uiso   1.00
H21    H     0.00008   0.22885   0.44684   0.00000  Uiso   1.00
H22    H     0.00015   0.22881   0.55826   0.00000  Uiso   1.00
H23    H     0.00004   0.89016   0.38675   0.00000  Uiso   1.00
H24    H     0.00005   0.11016   0.38675   0.00000  Uiso   1.00
C81    C     0.00003   0.93826   0.33181   0.00000  Uiso   1.00
C82    C     0.00003   0.96918   0.30497   0.00000  Uiso   1.00
C83    C     0.00003   0.03120   0.30497   0.00000  Uiso   1.00
C84    C     0.00003   0.06210   0.33180   0.00000  Uiso   1.00
C85    C     0.00009   0.66274   0.47122   0.00000  Uiso   1.00
C86    C     0.00009   0.61023   0.48727   0.00000  Uiso   1.00
C87    C     0.00011   0.61022   0.51783   0.00000  Uiso   1.00
C88    C     0.00013   0.66271   0.53388   0.00000  Uiso   1.00
C89    C     0.00020   0.93813   0.67330   0.00000  Uiso   1.00
C90    C     0.00020   0.96903   0.70013   0.00000  Uiso   1.00
C91    C     0.00020   0.03105   0.70013   0.00000  Uiso   1.00
C92    C     0.00020   0.06197   0.67329   0.00000  Uiso   1.00
C93    C     0.00009   0.33751   0.47122   0.00000  Uiso   1.00
C94    C     0.00009   0.39000   0.48727   0.00000  Uiso   1.00
C95    C     0.00011   0.38999   0.51783   0.00000  Uiso   1.00
C96    C     0.00013   0.33748   0.53388   0.00000  Uiso   1.00
H25    H     0.00003   0.89067   0.33144   0.00000  Uiso   1.00
O9     O     0.00002   0.93907   0.27795   0.00000  Uiso   1.00
O10    O     0.00003   0.06133   0.27794   0.00000  Uiso   1.00
H26    H     0.00003   0.10969   0.33143   0.00000  Uiso   1.00
H27    H     0.00007   0.66158   0.44713   0.00000  Uiso   1.00
O11    O     0.00008   0.55577   0.47375   0.00000  Uiso   1.00
O12    O     0.00012   0.55575   0.53135   0.00000  Uiso   1.00
H28    H     0.00015   0.66153   0.55797   0.00000  Uiso   1.00
H29    H     0.00019   0.89054   0.67367   0.00000  Uiso   1.00
O13    O     0.00021   0.93891   0.72716   0.00000  Uiso   1.00
O14    O     0.00021   0.06116   0.72715   0.00000  Uiso   1.00
H30    H     0.00020   0.10956   0.67366   0.00000  Uiso   1.00
H31    H     0.00007   0.33869   0.44713   0.00000  Uiso   1.00
O15    O     0.00008   0.44448   0.47375   0.00000  Uiso   1.00
O16    O     0.00012   0.44445   0.53135   0.00000  Uiso   1.00
H32    H     0.00014   0.33865   0.55797   0.00000  Uiso   1.00
Ni2    Ni    0.00011   0.00011   0.50255   0.00000  Uiso   1.00
Zn1    Zn    0.00003   0.00021   0.25255   0.00000  Uiso   1.00
Zn2    Zn    0.00020   0.00002   0.75255   0.00000  Uiso   1.00
Cu1    Cu    0.50012   0.00008   0.00255   0.00000  Uiso   1.00
Cu2    Cu    0.00008   0.50011   0.50255   0.00000  Uiso   1.00
loop_
_geom_bond_atom_site_label_1
_geom_bond_atom_site_label_2
_geom_bond_distance
_geom_bond_site_symmetry_2
_ccdc_geom_bond_type
C1     C2      1.412   .     A
C1     C6      1.394   .     A
C1     H1      1.084   .     S
C2     C3      1.432   1_655 A
C2     C37     1.403   .     A
C3     C2      1.432   1_455 A
C3     C4      1.412   .     A
C3     C40     1.403   .     A
C4     C5      1.394   .     A
C4     H2      1.084   .     S
C5     C6      1.358   1_455 A
C5     C8      1.377   .     A
C6     C5      1.358   1_655 A
C6     C7      1.377   .     A
C7     N1      1.359   .     A
C7     N8      1.338   .     A
N1     C8      1.359   1_655 A
N1     Ni1     1.895   1_656 S
C8     N1      1.359   1_455 A
C8     N2      1.338   .     A
N2     C9      1.338   .     A
C9     N3      1.359   1_556 A
C9     C12     1.377   .     A
N3     C9      1.359   1_554 A
N3     C10     1.359   .     A
N3     Ni1     1.895   .     S
C10    C11     1.377   .     A
C10    N5      1.338   .     A
C11    C12     1.359   1_554 A
C11    C20     1.394   .     A
C12    C11     1.359   1_556 A
C12    C17     1.394   .     A
N4     C13     1.359   .     A
N4     C16     1.359   1_455 A
N4     Ni1     1.895   .     S
C13    N5      1.338   .     A
C13    C14     1.377   .     A
C14    C15     1.358   1_455 A
C14    C24     1.394   .     A
C15    C14     1.358   1_655 A
C15    C16     1.377   .     A
C15    C21     1.394   .     A
C16    N4      1.359   1_655 A
C16    N7      1.338   .     A
C17    C18     1.411   .     A
C17    H3      1.084   .     S
C18    C19     1.435   1_556 A
C18    C41     1.405   .     A
C19    C18     1.435   1_554 A
C19    C20     1.411   .     A
C19    C44     1.405   .     A
C20    H4      1.084   .     S
C21    C22     1.412   .     A
C21    H5      1.084   .     S
C22    C23     1.432   1_655 A
C22    C45     1.403   .     A
C23    C22     1.432   1_455 A
C23    C24     1.412   .     A
C23    C48     1.403   .     A
C24    H6      1.084   .     S
N6     C25     1.359   .     A
N6     C28     1.359   1_554 A
N6     Ni1     1.895   1_655 S
C25    N7      1.338   .     A
C25    C26     1.377   .     A
C26    C27     1.359   1_554 A
C26    C32     1.394   .     A
C27    C26     1.359   1_556 A
C27    C28     1.377   .     A
C27    C29     1.394   .     A
C28    N6      1.359   1_556 A
C28    N8      1.338   .     A
C29    C30     1.411   .     A
C29    H7      1.084   .     S
C30    C31     1.435   1_556 A
C30    C33     1.405   .     A
C31    C30     1.435   1_554 A
C31    C32     1.411   .     A
C31    C36     1.405   .     A
C32    H8      1.084   .     S
C33    C34     1.396   .     A
C33    H9      1.083   .     S
C34    C35     1.374   1_556 A
C34    O1      1.381   .     S
C35    C34     1.374   1_554 A
C35    C36     1.396   .     A
C35    O2      1.381   .     S
C36    H10     1.083   .     S
C37    C38     1.397   .     A
C37    H11     1.084   .     S
C38    C39     1.412   1_655 A
C38    O3      1.395   .     S
C39    C38     1.412   1_455 A
C39    C40     1.397   .     A
C39    O4      1.395   .     S
C40    H12     1.084   .     S
C41    C42     1.396   .     A
C41    H13     1.083   .     S
C42    C43     1.374   1_556 A
C42    O5      1.381   .     S
C43    C42     1.374   1_554 A
C43    C44     1.396   .     A
C43    O6      1.381   .     S
C44    H14     1.083   .     S
C45    C46     1.397   .     A
C45    H15     1.084   .     S
C46    C47     1.412   1_655 A
C46    O7      1.395   .     S
C47    C46     1.412   1_455 A
C47    C48     1.397   .     A
C47    O8      1.395   .     S
C48    H16     1.084   .     S
O1     Cu1     1.812   1_556 S
O2     Cu1     1.812   .     S
O3     Zn2     1.800   1_655 S
O4     Zn2     1.800   .     S
O5     Cu1     1.812   1_556 S
O6     Cu1     1.812   .     S
O7     Zn1     1.800   1_655 S
O8     Zn1     1.800   .     S
Ni1    N6      1.895   1_455 S
Ni1    N1      1.895   1_454 S
C49    C50     1.411   .     A
C49    C54     1.394   .     A
C49    H17     1.084   .     S
C50    C51     1.435   .     A
C50    C85     1.405   .     A
C51    C52     1.411   .     A
C51    C88     1.405   .     A
C52    C53     1.394   .     A
C52    H18     1.084   .     S
C53    C54     1.359   .     A
C53    C56     1.377   .     A
C54    C55     1.377   .     A
C55    N9      1.359   .     A
C55    N16     1.338   .     A
N9     C56     1.359   .     A
N9     Ni2     1.895   1_565 S
C56    N10     1.338   .     A
N10    C57     1.338   .     A
C57    N11     1.359   1_565 A
C57    C60     1.377   .     A
N11    C57     1.359   1_545 A
N11    C58     1.359   .     A
N11    Ni2     1.895   .     S
C58    C59     1.377   .     A
C58    N13     1.338   .     A
C59    C60     1.358   1_545 A
C59    C68     1.394   .     A
C60    C59     1.358   1_565 A
C60    C65     1.394   .     A
N12    C61     1.359   .     A
N12    C64     1.359   .     A
N12    Ni2     1.895   .     S
C61    N13     1.338   .     A
C61    C62     1.377   .     A
C62    C63     1.359   .     A
C62    C72     1.394   .     A
C63    C64     1.377   .     A
C63    C69     1.394   .     A
C64    N15     1.338   .     A
C65    C66     1.412   .     A
C65    H19     1.084   .     S
C66    C67     1.432   1_565 A
C66    C89     1.403   .     A
C67    C66     1.432   1_545 A
C67    C68     1.412   .     A
C67    C92     1.403   .     A
C68    H20     1.084   .     S
C69    C70     1.411   .     A
C69    H21     1.084   .     S
C70    C71     1.435   .     A
C70    C93     1.405   .     A
C71    C72     1.411   .     A
C71    C96     1.405   .     A
C72    H22     1.084   .     S
N14    C73     1.359   1_565 A
N14    C76     1.359   .     A
N14    Ni2     1.895   1_565 S
C73    N14     1.359   1_545 A
C73    N15     1.338   .     A
C73    C74     1.377   .     A
C74    C75     1.358   1_545 A
C74    C80     1.394   .     A
C75    C74     1.358   1_565 A
C75    C76     1.377   .     A
C75    C77     1.394   .     A
C76    N16     1.338   .     A
C77    C78     1.412   .     A
C77    H23     1.084   .     S
C78    C79     1.432   1_565 A
C78    C81     1.403   .     A
C79    C78     1.432   1_545 A
C79    C80     1.412   .     A
C79    C84     1.403   .     A
C80    H24     1.084   .     S
C81    C82     1.397   .     A
C81    H25     1.084   .     S
C82    C83     1.412   1_565 A
C82    O9      1.395   .     S
C83    C82     1.412   1_545 A
C83    C84     1.397   .     A
C83    O10     1.395   .     S
C84    H26     1.084   .     S
C85    C86     1.396   .     A
C85    H27     1.083   .     S
C86    C87     1.374   .     A
C86    O11     1.381   .     S
C87    C88     1.396   .     A
C87    O12     1.381   .     S
C88    H28     1.083   .     S
C89    C90     1.397   .     A
C89    H29     1.084   .     S
C90    C91     1.412   1_565 A
C90    O13     1.395   .     S
C91    C90     1.412   1_545 A
C91    C92     1.397   .     A
C91    O14     1.395   .     S
C92    H30     1.084   .     S
C93    C94     1.396   .     A
C93    H31     1.083   .     S
C94    C95     1.374   .     A
C94    O15     1.381   .     S
C95    C96     1.396   .     A
C95    O16     1.381   .     S
C96    H32     1.083   .     S
O9     Zn1     1.800   1_565 S
O10    Zn1     1.800   .     S
O11    Cu2     1.812   .     S
O12    Cu2     1.812   .     S
O13    Zn2     1.800   1_565 S
O14    Zn2     1.800   .     S
O15    Cu2     1.812   .     S
O16    Cu2     1.812   .     S
Ni2    N9      1.895   1_545 S
Ni2    N14     1.895   1_545 S
Zn1    O7      1.800   1_455 S
Zn1    O9      1.800   1_545 S
Zn2    O13     1.800   1_545 S
Zn2    O3      1.800   1_455 S
Cu1    O5      1.812   1_554 S
Cu1    O1      1.812   1_554 S
