data_cdz-PcM_O-Zntet
_audit_creation_date              2021-11-06
_audit_creation_method            'Materials Studio'
_symmetry_space_group_name_H-M    'P1'
_symmetry_Int_Tables_number       1
_symmetry_cell_setting            triclinic
loop_
_symmetry_equiv_pos_as_xyz
  x,y,z
_cell_length_a                    17.9082
_cell_length_b                    53.1535
_cell_length_c                    17.9088
_cell_angle_alpha                 89.9959
_cell_angle_beta                  90.0712
_cell_angle_gamma                 90.0028
loop_
_atom_site_label
_atom_site_type_symbol
_atom_site_fract_x
_atom_site_fract_y
_atom_site_fract_z
_atom_site_U_iso_or_equiv
_atom_site_adp_type
_atom_site_occupancy
C1     C     0.92065   0.10420   1.00010   0.00000  Uiso   1.00
C2     C     0.96026   0.12705   1.00012   0.00000  Uiso   1.00
C3     C     0.03992   0.12705   1.00015   0.00000  Uiso   1.00
C4     C     0.07951   0.10420   1.00015   0.00000  Uiso   1.00
C5     C     0.03806   0.08196   1.00013   0.00000  Uiso   1.00
C6     C     0.96209   0.08196   1.00010   0.00000  Uiso   1.00
C7     C     0.94043   0.05711   1.00008   0.00000  Uiso   1.00
N1     N     0.00007   0.04128   1.00009   0.00000  Uiso   1.00
C8     C     0.05972   0.05711   1.00011   0.00000  Uiso   1.00
N2     N     0.13124   0.04983   0.00011   0.00000  Uiso   1.00
C9     C     0.15287   0.02573   0.00009   0.00000  Uiso   1.00
N3     N     0.10592   0.00562   1.00008   0.00000  Uiso   1.00
C10    C     0.15286   0.98551   1.00008   0.00000  Uiso   1.00
C11    C     0.22660   0.99280   0.00008   0.00000  Uiso   1.00
C12    C     0.22661   0.01845   0.00009   0.00000  Uiso   1.00
N4     N     0.00006   0.96996   1.00004   0.00000  Uiso   1.00
C13    C     0.05971   0.95414   1.00006   0.00000  Uiso   1.00
N5     N     0.13123   0.96142   1.00007   0.00000  Uiso   1.00
C14    C     0.03804   0.92929   1.00004   0.00000  Uiso   1.00
C15    C     0.96207   0.92929   0.00001   0.00000  Uiso   1.00
C16    C     0.94041   0.95414   0.00001   0.00000  Uiso   1.00
C17    C     0.29287   0.03237   0.00009   0.00000  Uiso   1.00
C18    C     0.36006   0.01868   0.00008   0.00000  Uiso   1.00
C19    C     0.36006   0.99256   0.00007   0.00000  Uiso   1.00
C20    C     0.29286   0.97887   0.00007   0.00000  Uiso   1.00
C21    C     0.92062   0.90705  -0.00002   0.00000  Uiso   1.00
C22    C     0.96022   0.88420   0.99998   0.00000  Uiso   1.00
C23    C     0.03988   0.88420   1.00003   0.00000  Uiso   1.00
C24    C     0.07948   0.90705   1.00005   0.00000  Uiso   1.00
N6     N     0.89421   0.00562   1.00003   0.00000  Uiso   1.00
C25    C     0.84727   0.98551   0.00000   0.00000  Uiso   1.00
N7     N     0.86889   0.96142  -0.00001   0.00000  Uiso   1.00
C26    C     0.77352   0.99280  -0.00000   0.00000  Uiso   1.00
C27    C     0.77353   0.01845   1.00002   0.00000  Uiso   1.00
C28    C     0.84727   0.02573   1.00004   0.00000  Uiso   1.00
C29    C     0.70727   0.03237   1.00003   0.00000  Uiso   1.00
C30    C     0.64007   0.01868   0.00002   0.00000  Uiso   1.00
C31    C     0.64007   0.99256  -0.00000   0.00000  Uiso   1.00
C32    C     0.70726   0.97887  -0.00001   0.00000  Uiso   1.00
N8     N     0.86891   0.04983   1.00006   0.00000  Uiso   1.00
H1     H     0.86021   0.10390   1.00007   0.00000  Uiso   1.00
O1     O     0.92213   0.14993   1.00010   0.00000  Uiso   1.00
O2     O     0.07805   0.14993   1.00018   0.00000  Uiso   1.00
H2     H     0.13996   0.10390   0.00017   0.00000  Uiso   1.00
H3     H     0.29257   0.05274   0.00009   0.00000  Uiso   1.00
O3     O     0.42937   0.03005   0.00007   0.00000  Uiso   1.00
O4     O     0.42937   0.98119   0.00005   0.00000  Uiso   1.00
H4     H     0.29256   0.95851   0.00006   0.00000  Uiso   1.00
H5     H     0.86018   0.90735  -0.00005   0.00000  Uiso   1.00
O5     O     0.92209   0.86132   0.99995   0.00000  Uiso   1.00
O6     O     0.07801   0.86132   1.00005   0.00000  Uiso   1.00
H6     H     0.13993   0.90735   1.00008   0.00000  Uiso   1.00
H7     H     0.70757   0.05274   1.00005   0.00000  Uiso   1.00
O7     O     0.57076   0.03006   0.00004   0.00000  Uiso   1.00
O8     O     0.57076   0.98119   0.00000   0.00000  Uiso   1.00
H8     H     0.70756   0.95851  -0.00003   0.00000  Uiso   1.00
Ni1    Ni    0.00006   0.00562   1.00006   0.00000  Uiso   1.00
C33    C     0.00007   0.43581   0.92069   0.00000  Uiso   1.00
C34    C     0.00007   0.45845   0.96132   0.00000  Uiso   1.00
C35    C     0.00007   0.45845   0.03884   0.00000  Uiso   1.00
C36    C     0.00007   0.43581   0.07948   0.00000  Uiso   1.00
C37    C     0.00006   0.41349   0.03815   0.00000  Uiso   1.00
C38    C     0.00007   0.41349   0.96202   0.00000  Uiso   1.00
C39    C     0.00006   0.38864   0.94041   0.00000  Uiso   1.00
N9     N     0.00006   0.37282   0.00010   0.00000  Uiso   1.00
C40    C     0.00006   0.38864   0.05978   0.00000  Uiso   1.00
N10    N     1.00005   0.38136   0.13129   0.00000  Uiso   1.00
C41    C     1.00005   0.35726   0.15291   0.00000  Uiso   1.00
N11    N     0.00006   0.33716   0.10596   0.00000  Uiso   1.00
C42    C     0.00007   0.31704   0.15290   0.00000  Uiso   1.00
C43    C     0.00006   0.32432   0.22665   0.00000  Uiso   1.00
C44    C     1.00004   0.34997   0.22665   0.00000  Uiso   1.00
N12    N     0.00006   0.30149   0.00011   0.00000  Uiso   1.00
C45    C     0.00009   0.28567   0.05976   0.00000  Uiso   1.00
N13    N     0.00008   0.29295   0.13128   0.00000  Uiso   1.00
C46    C     0.00009   0.26082   0.03810   0.00000  Uiso   1.00
C47    C     0.00006   0.26082   0.96214   0.00000  Uiso   1.00
C48    C     0.00005   0.28567   0.94047   0.00000  Uiso   1.00
C49    C     1.00003   0.36390   0.29291   0.00000  Uiso   1.00
C50    C     1.00002   0.35021   0.36010   0.00000  Uiso   1.00
C51    C     1.00003   0.32409   0.36010   0.00000  Uiso   1.00
C52    C     0.00005   0.31040   0.29291   0.00000  Uiso   1.00
C53    C     0.00005   0.23858   0.92070   0.00000  Uiso   1.00
C54    C     0.00007   0.21573   0.96030   0.00000  Uiso   1.00
C55    C     0.00011   0.21573   0.03996   0.00000  Uiso   1.00
C56    C     0.00012   0.23858   0.07955   0.00000  Uiso   1.00
N14    N     0.00003   0.33716   0.89425   0.00000  Uiso   1.00
C57    C     1.00001   0.31704   0.84731   0.00000  Uiso   1.00
N15    N     1.00002   0.29295   0.86895   0.00000  Uiso   1.00
C58    C     1.00000   0.32432   0.77356   0.00000  Uiso   1.00
C59    C     0.00001   0.34997   0.77355   0.00000  Uiso   1.00
C60    C     0.00003   0.35726   0.84729   0.00000  Uiso   1.00
C61    C     0.00000   0.36390   0.70729   0.00000  Uiso   1.00
C62    C    -0.00001   0.35021   0.64010   0.00000  Uiso   1.00
C63    C     0.99999   0.32409   0.64011   0.00000  Uiso   1.00
C64    C     1.00000   0.31040   0.70731   0.00000  Uiso   1.00
N16    N     0.00004   0.38136   0.86890   0.00000  Uiso   1.00
H9     H     0.00006   0.43571   0.86025   0.00000  Uiso   1.00
O9     O     0.00007   0.48180   0.92756   0.00000  Uiso   1.00
O10    O     0.00007   0.48180   0.07259   0.00000  Uiso   1.00
H10    H     0.00006   0.43571   0.13992   0.00000  Uiso   1.00
H11    H     1.00002   0.38426   0.29261   0.00000  Uiso   1.00
O11    O     1.00001   0.36158   0.42941   0.00000  Uiso   1.00
O12    O     1.00001   0.31271   0.42941   0.00000  Uiso   1.00
H12    H     0.00005   0.29003   0.29260   0.00000  Uiso   1.00
H13    H     1.00002   0.23888   0.86025   0.00000  Uiso   1.00
O13    O     0.00004   0.19285   0.92218   0.00000  Uiso   1.00
O14    O     0.00014   0.19285   0.07809   0.00000  Uiso   1.00
H14    H     0.00014   0.23888   0.14000   0.00000  Uiso   1.00
H15    H     0.00001   0.38426   0.70758   0.00000  Uiso   1.00
O15    O     0.99999   0.36158   0.57079   0.00000  Uiso   1.00
O16    O     0.99999   0.31271   0.57080   0.00000  Uiso   1.00
H16    H     0.99999   0.29003   0.70762   0.00000  Uiso   1.00
Ni2    Ni    0.00005   0.33716   0.00010   0.00000  Uiso   1.00
C65    C     0.00009   0.57543   0.07944   0.00000  Uiso   1.00
C66    C     0.00009   0.55279   0.03882   0.00000  Uiso   1.00
C67    C     0.00009   0.55279   0.96130   0.00000  Uiso   1.00
C68    C     0.00009   0.57543   0.92066   0.00000  Uiso   1.00
C69    C     0.00010   0.59776   0.96198   0.00000  Uiso   1.00
C70    C     0.00010   0.59776   0.03811   0.00000  Uiso   1.00
C71    C     0.00009   0.62260   0.05973   0.00000  Uiso   1.00
N17    N     0.00009   0.63842   0.00004   0.00000  Uiso   1.00
C72    C     0.00009   0.62260   0.94035   0.00000  Uiso   1.00
N18    N     1.00008   0.62989   0.86884   0.00000  Uiso   1.00
C73    C     1.00007   0.65398   0.84722   0.00000  Uiso   1.00
N19    N     0.00006   0.67409   0.89417   0.00000  Uiso   1.00
C74    C     0.00005   0.69420   0.84723   0.00000  Uiso   1.00
C75    C     0.00005   0.68692   0.77348   0.00000  Uiso   1.00
C76    C     1.00006   0.66127   0.77348   0.00000  Uiso   1.00
N20    N     0.00006   0.70975   0.00002   0.00000  Uiso   1.00
C77    C     0.00004   0.72558   0.94038   0.00000  Uiso   1.00
N21    N     0.00003   0.71830   0.86886   0.00000  Uiso   1.00
C78    C     0.00004   0.75043   0.96203   0.00000  Uiso   1.00
C79    C     0.00006   0.75043   0.03800   0.00000  Uiso   1.00
C80    C     0.00007   0.72558   0.05966   0.00000  Uiso   1.00
C81    C     1.00006   0.64735   0.70722   0.00000  Uiso   1.00
C82    C     1.00005   0.66104   0.64003   0.00000  Uiso   1.00
C83    C     1.00004   0.68716   0.64003   0.00000  Uiso   1.00
C84    C     0.00004   0.70085   0.70722   0.00000  Uiso   1.00
C85    C     0.00008   0.77267   0.07944   0.00000  Uiso   1.00
C86    C     0.00006   0.79552   0.03983   0.00000  Uiso   1.00
C87    C     0.00003   0.79552   0.96018   0.00000  Uiso   1.00
C88    C     0.00002   0.77267   0.92058   0.00000  Uiso   1.00
N22    N     0.00009   0.67409   0.10588   0.00000  Uiso   1.00
C89    C     1.00009   0.69420   0.15282   0.00000  Uiso   1.00
N23    N     1.00009   0.71830   0.13118   0.00000  Uiso   1.00
C90    C     1.00009   0.68692   0.22657   0.00000  Uiso   1.00
C91    C     0.00009   0.66127   0.22658   0.00000  Uiso   1.00
C92    C     0.00009   0.65398   0.15284   0.00000  Uiso   1.00
C93    C     0.00009   0.64735   0.29284   0.00000  Uiso   1.00
C94    C     0.00008   0.66104   0.36003   0.00000  Uiso   1.00
C95    C     1.00007   0.68716   0.36002   0.00000  Uiso   1.00
C96    C     1.00008   0.70085   0.29282   0.00000  Uiso   1.00
N24    N     0.00009   0.62989   0.13124   0.00000  Uiso   1.00
H17    H     0.00009   0.57554   0.13988   0.00000  Uiso   1.00
O17    O     0.00008   0.52944   0.07257   0.00000  Uiso   1.00
O18    O     0.00008   0.52944   0.92755   0.00000  Uiso   1.00
H18    H     0.00009   0.57553   0.86022   0.00000  Uiso   1.00
H19    H     1.00007   0.62698   0.70753   0.00000  Uiso   1.00
O19    O     1.00006   0.64967   0.57073   0.00000  Uiso   1.00
O20    O     1.00004   0.69853   0.57072   0.00000  Uiso   1.00
H20    H     0.00003   0.72121   0.70753   0.00000  Uiso   1.00
H21    H     1.00010   0.77236   0.13988   0.00000  Uiso   1.00
O21    O     0.00008   0.81840   0.07796   0.00000  Uiso   1.00
O22    O     0.00000   0.81840   0.92205   0.00000  Uiso   1.00
H22    H    -0.00001   0.77237   0.86014   0.00000  Uiso   1.00
H23    H     0.00008   0.62698   0.29255   0.00000  Uiso   1.00
O23    O     1.00007   0.64967   0.42934   0.00000  Uiso   1.00
O24    O     1.00006   0.69853   0.42933   0.00000  Uiso   1.00
H24    H     1.00008   0.72121   0.29251   0.00000  Uiso   1.00
Ni3    Ni    0.00007   0.67409   0.00003   0.00000  Uiso   1.00
Zn1    Zn    0.00009   0.17139   1.00014   0.00000  Uiso   1.00
Zn2    Zn    0.00004   0.83986   1.00000   0.00000  Uiso   1.00
Cu1    Cu    0.00006   0.50562   0.00007   0.00000  Uiso   1.00
Cu2    Cu    0.99999   0.33714   0.50010   0.00000  Uiso   1.00
Cu3    Cu    1.00004   0.67410   0.50003   0.00000  Uiso   1.00
Cu4    Cu    0.50007   0.00562   0.00003   0.00000  Uiso   1.00
loop_
_geom_bond_atom_site_label_1
_geom_bond_atom_site_label_2
_geom_bond_distance
_geom_bond_site_symmetry_2
_ccdc_geom_bond_type
C1     C2      1.406   .     A
C1     C6      1.396   .     A
C1     H1      1.083   .     S
C2     C3      1.427   1_655 A
C2     O1      1.395   .     S
C3     C2      1.427   1_455 A
C3     C4      1.406   .     A
C3     O2      1.395   .     S
C4     C5      1.396   .     A
C4     H2      1.083   1_556 S
C5     C6      1.360   1_455 A
C5     C8      1.377   .     A
C6     C5      1.360   1_655 A
C6     C7      1.377   .     A
C7     N1      1.360   1_655 A
C7     N8      1.338   .     A
N1     C7      1.360   1_455 A
N1     C8      1.360   .     A
N1     Ni1     1.896   .     S
C8     N2      1.338   1_556 A
N2     C8      1.338   1_554 A
N2     C9      1.338   .     A
C9     N3      1.360   1_554 A
C9     C12     1.376   .     A
N3     C9      1.360   1_556 A
N3     C10     1.360   1_545 A
N3     Ni1     1.896   .     S
C10    N3      1.360   1_565 A
C10    C11     1.376   1_556 A
C10    N5      1.338   .     A
C11    C10     1.376   1_554 A
C11    C12     1.363   1_565 A
C11    C20     1.399   .     A
C12    C11     1.363   1_545 A
C12    C17     1.399   .     A
N4     C13     1.360   .     A
N4     C16     1.360   1_456 A
N4     Ni1     1.896   1_565 S
C13    N5      1.338   .     A
C13    C14     1.377   .     A
C14    C15     1.360   1_456 A
C14    C24     1.396   .     A
C15    C14     1.360   1_654 A
C15    C16     1.377   .     A
C15    C21     1.396   .     A
C16    N4      1.360   1_654 A
C16    N7      1.338   .     A
C17    C18     1.406   .     A
C17    H3      1.082   .     S
C18    C19     1.388   1_545 A
C18    O3      1.381   .     S
C19    C18     1.388   1_565 A
C19    C20     1.406   .     A
C19    O4      1.381   .     S
C20    H4      1.082   .     S
C21    C22     1.406   1_554 A
C21    H5      1.083   .     S
C22    C21     1.406   1_556 A
C22    C23     1.427   1_655 A
C22    O5      1.395   .     S
C23    C22     1.427   1_455 A
C23    C24     1.406   .     A
C23    O6      1.395   .     S
C24    H6      1.083   .     S
N6     C25     1.360   1_546 A
N6     C28     1.360   .     A
N6     Ni1     1.896   1_655 S
C25    N6      1.360   1_564 A
C25    N7      1.338   .     A
C25    C26     1.376   .     A
C26    C27     1.363   1_564 A
C26    C32     1.399   .     A
C27    C26     1.363   1_546 A
C27    C28     1.376   .     A
C27    C29     1.399   .     A
C28    N8      1.338   .     A
C29    C30     1.406   1_556 A
C29    H7      1.082   .     S
C30    C29     1.406   1_554 A
C30    C31     1.388   1_545 A
C30    O7      1.381   .     S
C31    C30     1.388   1_565 A
C31    C32     1.406   .     A
C31    O8      1.381   .     S
C32    H8      1.082   .     S
O1     Zn1     1.803   1_655 S
O2     Zn1     1.803   .     S
H2     C4      1.083   1_554 S
O3     Cu4     1.814   .     S
O4     Cu4     1.814   1_565 S
O5     Zn2     1.803   1_655 S
O6     Zn2     1.803   .     S
O7     Cu4     1.814   .     S
O8     Cu4     1.814   1_565 S
Ni1    N6      1.896   1_455 S
Ni1    N4      1.896   1_545 S
C33    C34     1.406   .     A
C33    C38     1.399   .     A
C33    H9      1.082   .     S
C34    C35     1.388   1_556 A
C34    O9      1.381   .     S
C35    C34     1.388   1_554 A
C35    C36     1.406   .     A
C35    O10     1.381   .     S
C36    C37     1.399   .     A
C36    H10     1.082   .     S
C37    C38     1.363   1_554 A
C37    C40     1.376   .     A
C38    C37     1.363   1_556 A
C38    C39     1.376   .     A
C39    N9      1.360   1_556 A
C39    N16     1.338   .     A
N9     C39     1.360   1_554 A
N9     C40     1.360   .     A
N9     Ni2     1.896   .     S
C40    N10     1.338   1_455 A
N10    C40     1.338   1_655 A
N10    C41     1.338   .     A
C41    N11     1.360   1_655 A
C41    C44     1.376   .     A
N11    C41     1.360   1_455 A
N11    C42     1.360   .     A
N11    Ni2     1.896   .     S
C42    C43     1.376   .     A
C42    N13     1.338   .     A
C43    C44     1.363   1_455 A
C43    C52     1.399   .     A
C44    C43     1.363   1_655 A
C44    C49     1.399   .     A
N12    C45     1.360   .     A
N12    C48     1.360   1_554 A
N12    Ni2     1.896   .     S
C45    N13     1.338   .     A
C45    C46     1.377   .     A
C46    C47     1.360   1_554 A
C46    C56     1.396   .     A
C47    C46     1.360   1_556 A
C47    C48     1.377   .     A
C47    C53     1.396   .     A
C48    N12     1.360   1_556 A
C48    N15     1.338   1_455 A
C49    C50     1.406   .     A
C49    H11     1.082   .     S
C50    C51     1.388   .     A
C50    O11     1.381   .     S
C51    C52     1.406   1_655 A
C51    O12     1.381   .     S
C52    C51     1.406   1_455 A
C52    H12     1.082   .     S
C53    C54     1.406   .     A
C53    H13     1.083   1_455 S
C54    C55     1.427   1_556 A
C54    O13     1.395   .     S
C55    C54     1.427   1_554 A
C55    C56     1.406   .     A
C55    O14     1.395   .     S
C56    H14     1.083   .     S
N14    C57     1.360   1_455 A
N14    C60     1.360   .     A
N14    Ni2     1.896   1_556 S
C57    N14     1.360   1_655 A
C57    N15     1.338   .     A
C57    C58     1.376   .     A
N15    C48     1.338   1_655 A
C58    C59     1.363   1_655 A
C58    C64     1.399   .     A
C59    C58     1.363   1_455 A
C59    C60     1.376   .     A
C59    C61     1.399   .     A
C60    N16     1.338   .     A
C61    C62     1.406   .     A
C61    H15     1.082   .     S
C62    C63     1.388   1_455 A
C62    O15     1.381   1_455 S
C63    C62     1.388   1_655 A
C63    C64     1.406   .     A
C63    O16     1.381   .     S
C64    H16     1.082   .     S
O9     Cu1     1.814   1_556 S
O10    Cu1     1.814   .     S
O11    Cu2     1.814   .     S
O12    Cu2     1.814   .     S
H13    C53     1.083   1_655 S
O13    Zn1     1.803   .     S
O14    Zn1     1.803   1_554 S
O15    C62     1.381   1_655 S
O15    Cu2     1.814   .     S
O16    Cu2     1.814   .     S
Ni2    N14     1.896   1_554 S
C65    C66     1.406   .     A
C65    C70     1.399   .     A
C65    H17     1.082   .     S
C66    C67     1.388   1_554 A
C66    O17     1.381   .     S
C67    C66     1.388   1_556 A
C67    C68     1.406   .     A
C67    O18     1.381   .     S
C68    C69     1.399   .     A
C68    H18     1.082   .     S
C69    C70     1.363   1_556 A
C69    C72     1.376   .     A
C70    C69     1.363   1_554 A
C70    C71     1.376   .     A
C71    N17     1.360   .     A
C71    N24     1.338   .     A
N17    C72     1.360   1_554 A
N17    Ni3     1.896   .     S
C72    N17     1.360   1_556 A
C72    N18     1.338   1_455 A
N18    C72     1.338   1_655 A
N18    C73     1.338   .     A
C73    N19     1.360   1_655 A
C73    C76     1.376   .     A
N19    C73     1.360   1_455 A
N19    C74     1.360   .     A
N19    Ni3     1.896   1_556 S
C74    C75     1.376   .     A
C74    N21     1.338   .     A
C75    C76     1.363   1_455 A
C75    C84     1.399   .     A
C76    C75     1.363   1_655 A
C76    C81     1.399   .     A
N20    C77     1.360   1_554 A
N20    C80     1.360   .     A
N20    Ni3     1.896   .     S
C77    N20     1.360   1_556 A
C77    N21     1.338   .     A
C77    C78     1.377   .     A
C78    C79     1.360   1_556 A
C78    C88     1.396   .     A
C79    C78     1.360   1_554 A
C79    C80     1.377   .     A
C79    C85     1.396   .     A
C80    N23     1.338   1_455 A
C81    C82     1.406   .     A
C81    H19     1.082   .     S
C82    C83     1.388   .     A
C82    O19     1.381   .     S
C83    C84     1.406   1_655 A
C83    O20     1.381   .     S
C84    C83     1.406   1_455 A
C84    H20     1.082   .     S
C85    C86     1.406   .     A
C85    H21     1.083   1_455 S
C86    C87     1.427   1_554 A
C86    O21     1.395   .     S
C87    C86     1.427   1_556 A
C87    C88     1.406   .     A
C87    O22     1.395   .     S
C88    H22     1.083   .     S
N22    C89     1.360   1_455 A
N22    C92     1.360   .     A
N22    Ni3     1.896   .     S
C89    N22     1.360   1_655 A
C89    N23     1.338   .     A
C89    C90     1.376   .     A
N23    C80     1.338   1_655 A
C90    C91     1.363   1_655 A
C90    C96     1.399   .     A
C91    C90     1.363   1_455 A
C91    C92     1.376   .     A
C91    C93     1.399   .     A
C92    N24     1.338   .     A
C93    C94     1.406   .     A
C93    H23     1.082   .     S
C94    C95     1.388   1_455 A
C94    O23     1.381   1_455 S
C95    C94     1.388   1_655 A
C95    C96     1.406   .     A
C95    O24     1.381   .     S
C96    H24     1.082   .     S
O17    Cu1     1.814   .     S
O18    Cu1     1.814   1_556 S
O19    Cu3     1.814   .     S
O20    Cu3     1.814   .     S
H21    C85     1.083   1_655 S
O21    Zn2     1.803   1_554 S
O22    Zn2     1.803   .     S
O23    C94     1.381   1_655 S
O23    Cu3     1.814   .     S
O24    Cu3     1.814   .     S
Ni3    N19     1.896   1_554 S
Zn1    O1      1.803   1_455 S
Zn1    O14     1.803   1_556 S
Zn2    O5      1.803   1_455 S
Zn2    O21     1.803   1_556 S
Cu1    O18     1.814   1_554 S
Cu1    O9      1.814   1_554 S
Cu4    O8      1.814   1_545 S
Cu4    O4      1.814   1_545 S
