data_cdz-PcMN_O-Zntet
_audit_creation_date              2021-11-06
_audit_creation_method            'Materials Studio'
_symmetry_space_group_name_H-M    'P1'
_symmetry_Int_Tables_number       1
_symmetry_cell_setting            triclinic
loop_
_symmetry_equiv_pos_as_xyz
  x,y,z
_cell_length_a                    22.7687
_cell_length_b                    67.7411
_cell_length_c                    22.7688
_cell_angle_alpha                 90.0324
_cell_angle_beta                  89.9971
_cell_angle_gamma                 89.8801
loop_
_atom_site_label
_atom_site_type_symbol
_atom_site_fract_x
_atom_site_fract_y
_atom_site_fract_z
_atom_site_U_iso_or_equiv
_atom_site_adp_type
_atom_site_occupancy
C1     C     0.94000   0.92594   0.00154   0.00000  Uiso   1.00
C2     C     0.97109   0.90789   0.00161   0.00000  Uiso   1.00
C3     C     0.03397   0.90789   0.00161   0.00000  Uiso   1.00
C4     C     0.06485   0.92593   0.00154   0.00000  Uiso   1.00
C5     C     0.03215   0.94336   0.00147   0.00000  Uiso   1.00
C6     C     0.97248   0.94336   0.00147   0.00000  Uiso   1.00
C7     C     0.95530   0.96286   0.00136   0.00000  Uiso   1.00
N1     N     0.00212   0.97527   0.00129   0.00000  Uiso   1.00
C8     C     0.04910   0.96286   0.00136   0.00000  Uiso   1.00
N2     N     0.10532   0.96857   0.00133   0.00000  Uiso   1.00
C9     C     0.12221   0.98748   0.00122   0.00000  Uiso   1.00
N3     N     0.08517   0.00324   0.00113   0.00000  Uiso   1.00
C10    C     0.12202   0.01901   0.00104   0.00000  Uiso   1.00
C11    C     0.18006   0.01327   0.00108   0.00000  Uiso   1.00
C12    C     0.18019   0.99321   0.00119   0.00000  Uiso   1.00
N4     N     0.00177   0.03122   0.00095   0.00000  Uiso   1.00
C13    C     0.04860   0.04363   0.00088   0.00000  Uiso   1.00
N5     N     0.10489   0.03792   0.00092   0.00000  Uiso   1.00
C14    C     0.03141   0.06313   0.00078   0.00000  Uiso   1.00
C15    C     0.97175   0.06313   0.00078   0.00000  Uiso   1.00
C16    C     0.95480   0.04363   0.00088   0.00000  Uiso   1.00
C17    C     0.23208   0.98225   0.00126   0.00000  Uiso   1.00
C18    C     0.28569   0.99266   0.00120   0.00000  Uiso   1.00
C19    C     0.28556   0.01383   0.00107   0.00000  Uiso   1.00
C20    C     0.23182   0.02424   0.00101   0.00000  Uiso   1.00
C21    C     0.93904   0.08055   0.00070   0.00000  Uiso   1.00
C22    C     0.96991   0.09860   0.00064   0.00000  Uiso   1.00
C23    C     0.03279   0.09860   0.00063   0.00000  Uiso   1.00
C24    C     0.06389   0.08056   0.00070   0.00000  Uiso   1.00
N6     N     0.91872   0.00325   0.00113   0.00000  Uiso   1.00
C25    C     0.88168   0.01901   0.00104   0.00000  Uiso   1.00
N7     N     0.89857   0.03792   0.00092   0.00000  Uiso   1.00
C26    C     0.82371   0.01328   0.00108   0.00000  Uiso   1.00
C27    C     0.82383   0.99322   0.00119   0.00000  Uiso   1.00
C28    C     0.88188   0.98748   0.00122   0.00000  Uiso   1.00
C29    C     0.77207   0.98225   0.00126   0.00000  Uiso   1.00
C30    C     0.71834   0.99266   0.00119   0.00000  Uiso   1.00
C31    C     0.71820   0.01383   0.00107   0.00000  Uiso   1.00
C32    C     0.77181   0.02424   0.00101   0.00000  Uiso   1.00
N8     N     0.89900   0.96857   0.00133   0.00000  Uiso   1.00
H1     H     0.89242   0.92637   0.00153   0.00000  Uiso   1.00
H2     H     0.11242   0.92637   0.00153   0.00000  Uiso   1.00
H3     H     0.23090   0.96626   0.00135   0.00000  Uiso   1.00
H4     H     0.23044   0.04023   0.00091   0.00000  Uiso   1.00
H5     H     0.89147   0.08012   0.00071   0.00000  Uiso   1.00
H6     H     0.11147   0.08012   0.00071   0.00000  Uiso   1.00
H7     H     0.77346   0.96626   0.00135   0.00000  Uiso   1.00
H8     H     0.77300   0.04023   0.00091   0.00000  Uiso   1.00
C33    C     0.66469   0.98244   0.00125   0.00000  Uiso   1.00
C34    C     0.61213   0.99310   0.00118   0.00000  Uiso   1.00
C35    C     0.61200   0.01339   0.00106   0.00000  Uiso   1.00
C36    C     0.66443   0.02405   0.00100   0.00000  Uiso   1.00
C37    C     0.94072   0.88989   0.00166   0.00000  Uiso   1.00
C38    C     0.97174   0.87208   0.00170   0.00000  Uiso   1.00
C39    C     0.03376   0.87207   0.00170   0.00000  Uiso   1.00
C40    C     0.06456   0.88989   0.00166   0.00000  Uiso   1.00
C41    C     0.33946   0.98244   0.00125   0.00000  Uiso   1.00
C42    C     0.39189   0.99310   0.00119   0.00000  Uiso   1.00
C43    C     0.39177   0.01339   0.00106   0.00000  Uiso   1.00
C44    C     0.33920   0.02405   0.00100   0.00000  Uiso   1.00
C45    C     0.93932   0.11660   0.00059   0.00000  Uiso   1.00
C46    C     0.97011   0.13441   0.00055   0.00000  Uiso   1.00
C47    C     0.03214   0.13442   0.00055   0.00000  Uiso   1.00
C48    C     0.06316   0.11660   0.00058   0.00000  Uiso   1.00
H9     H     0.66362   0.96645   0.00135   0.00000  Uiso   1.00
O1     O     0.55771   0.98412   0.00123   0.00000  Uiso   1.00
O2     O     0.55747   0.02237   0.00100   0.00000  Uiso   1.00
H10    H     0.66316   0.04004   0.00091   0.00000  Uiso   1.00
H11    H     0.89313   0.88965   0.00165   0.00000  Uiso   1.00
O3     O     0.94173   0.85413   0.00171   0.00000  Uiso   1.00
O4     O     0.06398   0.85413   0.00171   0.00000  Uiso   1.00
H12    H     0.11215   0.88964   0.00166   0.00000  Uiso   1.00
H13    H     0.34074   0.96645   0.00135   0.00000  Uiso   1.00
O5     O     0.44642   0.98412   0.00123   0.00000  Uiso   1.00
O6     O     0.44618   0.02237   0.00100   0.00000  Uiso   1.00
H14    H     0.34028   0.04004   0.00091   0.00000  Uiso   1.00
H15    H     0.89173   0.11684   0.00059   0.00000  Uiso   1.00
O7     O     0.93988   0.15235   0.00054   0.00000  Uiso   1.00
O8     O     0.06214   0.15236   0.00054   0.00000  Uiso   1.00
H16    H     0.11074   0.11685   0.00059   0.00000  Uiso   1.00
Ni1    Ni    0.00195   0.00324   0.00112   0.00000  Uiso   1.00
C49    C     0.00042   0.41250   0.06348   0.00000  Uiso   1.00
C50    C     0.00059   0.43054   0.03253   0.00000  Uiso   1.00
C51    C     0.00059   0.43054   0.96953   0.00000  Uiso   1.00
C52    C     0.00041   0.41249   0.93853   0.00000  Uiso   1.00
C53    C     0.00027   0.39508   0.97113   0.00000  Uiso   1.00
C54    C     0.00027   0.39508   0.03082   0.00000  Uiso   1.00
C55    C     0.00018   0.37558   0.04784   0.00000  Uiso   1.00
N9     N     0.00014   0.36316   0.00092   0.00000  Uiso   1.00
C56    C     0.00018   0.37558   0.95404   0.00000  Uiso   1.00
N10    N     0.00016   0.36986   0.89777   0.00000  Uiso   1.00
C57    C     0.00011   0.35095   0.88073   0.00000  Uiso   1.00
N11    N     0.00011   0.33519   0.91764   0.00000  Uiso   1.00
C58    C     0.00010   0.31942   0.88068   0.00000  Uiso   1.00
C59    C     0.00008   0.32516   0.82268   0.00000  Uiso   1.00
C60    C     0.00009   0.34522   0.82271   0.00000  Uiso   1.00
N12    N     0.00013   0.30721   0.00082   0.00000  Uiso   1.00
C61    C     0.00016   0.29480   0.95390   0.00000  Uiso   1.00
N13    N     0.00014   0.30051   0.89765   0.00000  Uiso   1.00
C62    C     0.00023   0.27530   0.97094   0.00000  Uiso   1.00
C63    C     0.00023   0.27530   0.03060   0.00000  Uiso   1.00
C64    C     0.00016   0.29480   0.04770   0.00000  Uiso   1.00
C65    C     0.00008   0.35619   0.77090   0.00000  Uiso   1.00
C66    C     0.00006   0.34578   0.71721   0.00000  Uiso   1.00
C67    C     0.00006   0.32460   0.71718   0.00000  Uiso   1.00
C68    C     0.00007   0.31419   0.77084   0.00000  Uiso   1.00
C69    C     0.00032   0.25788   0.06316   0.00000  Uiso   1.00
C70    C     0.00042   0.23983   0.03214   0.00000  Uiso   1.00
C71    C     0.00042   0.23983   0.96926   0.00000  Uiso   1.00
C72    C     0.00032   0.25788   0.93831   0.00000  Uiso   1.00
N14    N     0.00011   0.33519   0.08410   0.00000  Uiso   1.00
C73    C     0.00010   0.31942   0.12101   0.00000  Uiso   1.00
N15    N     0.00014   0.30051   0.10397   0.00000  Uiso   1.00
C74    C     0.00009   0.32516   0.17903   0.00000  Uiso   1.00
C75    C     0.00009   0.34522   0.17907   0.00000  Uiso   1.00
C76    C     0.00011   0.35095   0.12107   0.00000  Uiso   1.00
C77    C     0.00008   0.35618   0.23091   0.00000  Uiso   1.00
C78    C     0.00007   0.34577   0.28457   0.00000  Uiso   1.00
C79    C     0.00007   0.32460   0.28453   0.00000  Uiso   1.00
C80    C     0.00008   0.31419   0.23084   0.00000  Uiso   1.00
N16    N     0.00016   0.36986   0.10409   0.00000  Uiso   1.00
H17    H     0.00043   0.41207   0.11105   0.00000  Uiso   1.00
H18    H     0.00043   0.41206   0.89096   0.00000  Uiso   1.00
H19    H     0.00008   0.37218   0.77221   0.00000  Uiso   1.00
H20    H     0.00007   0.29820   0.77209   0.00000  Uiso   1.00
H21    H     0.00032   0.25831   0.11073   0.00000  Uiso   1.00
H22    H     0.00033   0.25831   0.89074   0.00000  Uiso   1.00
H23    H     0.00008   0.37217   0.22966   0.00000  Uiso   1.00
H24    H     0.00008   0.29820   0.22953   0.00000  Uiso   1.00
C81    C     0.00005   0.35599   0.33829   0.00000  Uiso   1.00
C82    C     0.00004   0.34533   0.39077   0.00000  Uiso   1.00
C83    C     0.00004   0.32504   0.39074   0.00000  Uiso   1.00
C84    C     0.00006   0.31438   0.33822   0.00000  Uiso   1.00
C85    C     0.00080   0.44859   0.06295   0.00000  Uiso   1.00
C86    C     0.00102   0.46623   0.03126   0.00000  Uiso   1.00
C87    C     0.00102   0.46623   0.97090   0.00000  Uiso   1.00
C88    C     0.00079   0.44859   0.93916   0.00000  Uiso   1.00
C89    C     0.00005   0.35599   0.66352   0.00000  Uiso   1.00
C90    C     0.00004   0.34533   0.61101   0.00000  Uiso   1.00
C91    C     0.00004   0.32504   0.61097   0.00000  Uiso   1.00
C92    C     0.00005   0.31438   0.66345   0.00000  Uiso   1.00
C93    C     0.00054   0.22183   0.06258   0.00000  Uiso   1.00
C94    C     0.00066   0.20402   0.03164   0.00000  Uiso   1.00
C95    C     0.00066   0.20402   0.96962   0.00000  Uiso   1.00
C96    C     0.00055   0.22183   0.93875   0.00000  Uiso   1.00
H25    H     0.00005   0.37198   0.33950   0.00000  Uiso   1.00
O9     O     0.00003   0.35431   0.44526   0.00000  Uiso   1.00
O10    O     0.00003   0.31606   0.44519   0.00000  Uiso   1.00
H26    H     0.00006   0.29839   0.33937   0.00000  Uiso   1.00
H27    H     0.00082   0.44899   0.11052   0.00000  Uiso   1.00
O11    O     0.00128   0.48454   0.05800   0.00000  Uiso   1.00
O12    O     0.00127   0.48454   0.94421   0.00000  Uiso   1.00
H28    H     0.00080   0.44898   0.89159   0.00000  Uiso   1.00
H29    H     0.00005   0.37198   0.66237   0.00000  Uiso   1.00
O13    O     0.00002   0.35431   0.55655   0.00000  Uiso   1.00
O14    O     0.00003   0.31606   0.55649   0.00000  Uiso   1.00
H30    H     0.00005   0.29839   0.66226   0.00000  Uiso   1.00
H31    H     0.00054   0.22158   0.11017   0.00000  Uiso   1.00
O15    O     0.00079   0.18607   0.06172   0.00000  Uiso   1.00
O16    O     0.00079   0.18608   0.93947   0.00000  Uiso   1.00
H32    H     0.00055   0.22159   0.89116   0.00000  Uiso   1.00
Ni2    Ni    0.00012   0.33519   0.00087   0.00000  Uiso   1.00
C97    C     0.00292   0.59399   0.93878   0.00000  Uiso   1.00
C98    C     0.00271   0.57595   0.96973   0.00000  Uiso   1.00
C99    C     0.00271   0.57596   0.03273   0.00000  Uiso   1.00
C100   C     0.00292   0.59400   0.06373   0.00000  Uiso   1.00
C101   C     0.00310   0.61141   0.03113   0.00000  Uiso   1.00
C102   C     0.00310   0.61141   0.97144   0.00000  Uiso   1.00
C103   C     0.00323   0.63091   0.95442   0.00000  Uiso   1.00
N17    N     0.00330   0.64333   0.00134   0.00000  Uiso   1.00
C104   C     0.00323   0.63091   0.04822   0.00000  Uiso   1.00
N18    N     0.00326   0.63663   0.10449   0.00000  Uiso   1.00
C105   C     0.00335   0.65554   0.12153   0.00000  Uiso   1.00
N19    N     0.00339   0.67130   0.08461   0.00000  Uiso   1.00
C106   C     0.00344   0.68707   0.12158   0.00000  Uiso   1.00
C107   C     0.00343   0.68133   0.17958   0.00000  Uiso   1.00
C108   C     0.00338   0.66127   0.17955   0.00000  Uiso   1.00
N20    N     0.00344   0.69928   0.00144   0.00000  Uiso   1.00
C109   C     0.00344   0.71169   0.04836   0.00000  Uiso   1.00
N21    N     0.00345   0.70598   0.10461   0.00000  Uiso   1.00
C110   C     0.00343   0.73119   0.03132   0.00000  Uiso   1.00
C111   C     0.00343   0.73119   0.97166   0.00000  Uiso   1.00
C112   C     0.00344   0.71169   0.95456   0.00000  Uiso   1.00
C113   C     0.00336   0.65030   0.23135   0.00000  Uiso   1.00
C114   C     0.00339   0.66071   0.28504   0.00000  Uiso   1.00
C115   C     0.00345   0.68189   0.28508   0.00000  Uiso   1.00
C116   C     0.00347   0.69230   0.23142   0.00000  Uiso   1.00
C117   C     0.00338   0.74861   0.93910   0.00000  Uiso   1.00
C118   C     0.00332   0.76666   0.97012   0.00000  Uiso   1.00
C119   C     0.00332   0.76666   0.03300   0.00000  Uiso   1.00
C120   C     0.00338   0.74861   0.06395   0.00000  Uiso   1.00
N22    N     0.00339   0.67130   0.91816   0.00000  Uiso   1.00
C121   C     0.00343   0.68707   0.88125   0.00000  Uiso   1.00
N23    N     0.00345   0.70598   0.89829   0.00000  Uiso   1.00
C122   C     0.00343   0.68133   0.82323   0.00000  Uiso   1.00
C123   C     0.00338   0.66127   0.82319   0.00000  Uiso   1.00
C124   C     0.00335   0.65554   0.88119   0.00000  Uiso   1.00
C125   C     0.00336   0.65031   0.77135   0.00000  Uiso   1.00
C126   C     0.00339   0.66072   0.71769   0.00000  Uiso   1.00
C127   C     0.00344   0.68189   0.71773   0.00000  Uiso   1.00
C128   C     0.00346   0.69230   0.77142   0.00000  Uiso   1.00
N24    N     0.00326   0.63663   0.89817   0.00000  Uiso   1.00
H33    H     0.00290   0.59442   0.89121   0.00000  Uiso   1.00
H34    H     0.00291   0.59443   0.11131   0.00000  Uiso   1.00
H35    H     0.00332   0.63431   0.23004   0.00000  Uiso   1.00
H36    H     0.00351   0.70829   0.23017   0.00000  Uiso   1.00
H37    H     0.00337   0.74818   0.89153   0.00000  Uiso   1.00
H38    H     0.00337   0.74818   0.11152   0.00000  Uiso   1.00
H39    H     0.00332   0.63432   0.77260   0.00000  Uiso   1.00
H40    H     0.00350   0.70829   0.77273   0.00000  Uiso   1.00
C129   C     0.00338   0.65050   0.66396   0.00000  Uiso   1.00
C130   C     0.00341   0.66116   0.61148   0.00000  Uiso   1.00
C131   C     0.00346   0.68145   0.61152   0.00000  Uiso   1.00
C132   C     0.00348   0.69211   0.66404   0.00000  Uiso   1.00
C133   C     0.00246   0.55790   0.93931   0.00000  Uiso   1.00
C134   C     0.00220   0.54026   0.97100   0.00000  Uiso   1.00
C135   C     0.00220   0.54026   0.03136   0.00000  Uiso   1.00
C136   C     0.00247   0.55790   0.06310   0.00000  Uiso   1.00
C137   C     0.00338   0.65050   0.33874   0.00000  Uiso   1.00
C138   C     0.00341   0.66116   0.39125   0.00000  Uiso   1.00
C139   C     0.00346   0.68145   0.39129   0.00000  Uiso   1.00
C140   C     0.00348   0.69211   0.33881   0.00000  Uiso   1.00
C141   C     0.00324   0.78466   0.93968   0.00000  Uiso   1.00
C142   C     0.00316   0.80247   0.97062   0.00000  Uiso   1.00
C143   C     0.00315   0.80247   0.03264   0.00000  Uiso   1.00
C144   C     0.00324   0.78466   0.06351   0.00000  Uiso   1.00
H41    H     0.00334   0.63451   0.66276   0.00000  Uiso   1.00
O17    O     0.00340   0.65218   0.55700   0.00000  Uiso   1.00
O18    O     0.00349   0.69043   0.55707   0.00000  Uiso   1.00
H42    H     0.00352   0.70810   0.66289   0.00000  Uiso   1.00
H43    H     0.00244   0.55750   0.89174   0.00000  Uiso   1.00
O19    O     0.00190   0.52195   0.94426   0.00000  Uiso   1.00
O20    O     0.00191   0.52195   0.05805   0.00000  Uiso   1.00
H44    H     0.00246   0.55751   0.11067   0.00000  Uiso   1.00
H45    H     0.00334   0.63451   0.33989   0.00000  Uiso   1.00
O21    O     0.00340   0.65218   0.44571   0.00000  Uiso   1.00
O22    O     0.00349   0.69043   0.44577   0.00000  Uiso   1.00
H46    H     0.00352   0.70810   0.34000   0.00000  Uiso   1.00
H47    H     0.00324   0.78491   0.89209   0.00000  Uiso   1.00
O23    O     0.00306   0.82042   0.94053   0.00000  Uiso   1.00
O24    O     0.00305   0.82041   0.06279   0.00000  Uiso   1.00
H48    H     0.00323   0.78490   0.11110   0.00000  Uiso   1.00
Ni3    Ni    0.00338   0.67130   0.00138   0.00000  Uiso   1.00
Zn1    Zn    0.00090   0.16922   0.00057   0.00000  Uiso   1.00
Zn2    Zn    0.00296   0.83727   0.00169   0.00000  Uiso   1.00
Cu1    Cu    0.00158   0.50325   0.00113   0.00000  Uiso   1.00
Cu2    Cu    0.00002   0.33519   0.50087   0.00000  Uiso   1.00
Cu3    Cu    0.00343   0.67130   0.50139   0.00000  Uiso   1.00
Cu4    Cu    0.50195   0.00324   0.00110   0.00000  Uiso   1.00
loop_
_geom_bond_atom_site_label_1
_geom_bond_atom_site_label_2
_geom_bond_distance
_geom_bond_site_symmetry_2
_ccdc_geom_bond_type
C1     C2      1.411   .     A
C1     C6      1.394   .     A
C1     H1      1.084   .     S
C2     C3      1.432   1_655 A
C2     C37     1.403   .     A
C3     C2      1.432   1_455 A
C3     C4      1.412   .     A
C3     C40     1.403   .     A
C4     C5      1.394   .     A
C4     H2      1.084   .     S
C5     C6      1.358   1_455 A
C5     C8      1.377   .     A
C6     C5      1.358   1_655 A
C6     C7      1.377   .     A
C7     N1      1.359   1_655 A
C7     N8      1.338   .     A
N1     C7      1.359   1_455 A
N1     C8      1.359   .     A
N1     Ni1     1.895   1_565 S
C8     N2      1.338   .     A
N2     C9      1.338   .     A
C9     N3      1.359   1_565 A
C9     C12     1.377   .     A
N3     C9      1.359   1_545 A
N3     C10     1.359   .     A
N3     Ni1     1.895   .     S
C10    C11     1.377   .     A
C10    N5      1.338   .     A
C11    C12     1.359   1_545 A
C11    C20     1.394   .     A
C12    C11     1.359   1_565 A
C12    C17     1.394   .     A
N4     C13     1.359   .     A
N4     C16     1.359   1_455 A
N4     Ni1     1.895   .     S
C13    N5      1.338   .     A
C13    C14     1.377   .     A
C14    C15     1.358   1_455 A
C14    C24     1.394   .     A
C15    C14     1.358   1_655 A
C15    C16     1.377   .     A
C15    C21     1.394   .     A
C16    N4      1.359   1_655 A
C16    N7      1.338   .     A
C17    C18     1.411   .     A
C17    H3      1.084   .     S
C18    C19     1.435   1_565 A
C18    C41     1.405   .     A
C19    C18     1.435   1_545 A
C19    C20     1.411   .     A
C19    C44     1.405   .     A
C20    H4      1.084   .     S
C21    C22     1.411   .     A
C21    H5      1.084   .     S
C22    C23     1.432   1_655 A
C22    C45     1.403   .     A
C23    C22     1.432   1_455 A
C23    C24     1.412   .     A
C23    C48     1.403   .     A
C24    H6      1.084   .     S
N6     C25     1.359   .     A
N6     C28     1.359   1_545 A
N6     Ni1     1.895   1_655 S
C25    N7      1.338   .     A
C25    C26     1.377   .     A
C26    C27     1.359   1_545 A
C26    C32     1.394   .     A
C27    C26     1.359   1_565 A
C27    C28     1.377   .     A
C27    C29     1.394   .     A
C28    N6      1.359   1_565 A
C28    N8      1.338   .     A
C29    C30     1.411   .     A
C29    H7      1.084   .     S
C30    C31     1.435   1_565 A
C30    C33     1.405   .     A
C31    C30     1.435   1_545 A
C31    C32     1.411   .     A
C31    C36     1.405   .     A
C32    H8      1.084   .     S
C33    C34     1.396   .     A
C33    H9      1.083   .     S
C34    C35     1.374   1_565 A
C34    O1      1.381   .     S
C35    C34     1.374   1_545 A
C35    C36     1.396   .     A
C35    O2      1.381   .     S
C36    H10     1.083   .     S
C37    C38     1.397   .     A
C37    H11     1.084   .     S
C38    C39     1.412   1_655 A
C38    O3      1.395   .     S
C39    C38     1.412   1_455 A
C39    C40     1.397   .     A
C39    O4      1.395   .     S
C40    H12     1.084   .     S
C41    C42     1.396   .     A
C41    H13     1.083   .     S
C42    C43     1.374   1_565 A
C42    O5      1.381   .     S
C43    C42     1.374   1_545 A
C43    C44     1.396   .     A
C43    O6      1.381   .     S
C44    H14     1.083   .     S
C45    C46     1.397   .     A
C45    H15     1.084   .     S
C46    C47     1.412   1_655 A
C46    O7      1.395   .     S
C47    C46     1.412   1_455 A
C47    C48     1.397   .     A
C47    O8      1.395   .     S
C48    H16     1.084   .     S
O1     Cu4     1.812   1_565 S
O2     Cu4     1.812   .     S
O3     Zn2     1.800   1_655 S
O4     Zn2     1.800   .     S
O5     Cu4     1.812   1_565 S
O6     Cu4     1.812   .     S
O7     Zn1     1.800   1_655 S
O8     Zn1     1.800   .     S
Ni1    N6      1.895   1_455 S
Ni1    N1      1.895   1_545 S
C49    C50     1.411   .     A
C49    C54     1.394   .     A
C49    H17     1.084   .     S
C50    C51     1.435   1_554 A
C50    C85     1.405   .     A
C51    C50     1.435   1_556 A
C51    C52     1.411   .     A
C51    C88     1.405   .     A
C52    C53     1.394   .     A
C52    H18     1.084   .     S
C53    C54     1.359   1_556 A
C53    C56     1.377   .     A
C54    C53     1.359   1_554 A
C54    C55     1.377   .     A
C55    N9      1.359   .     A
C55    N16     1.338   .     A
N9     C56     1.359   1_554 A
N9     Ni2     1.895   .     S
C56    N9      1.359   1_556 A
C56    N10     1.338   .     A
N10    C57     1.338   .     A
C57    N11     1.359   .     A
C57    C60     1.377   .     A
N11    C58     1.359   .     A
N11    Ni2     1.895   1_556 S
C58    C59     1.377   .     A
C58    N13     1.338   .     A
C59    C60     1.359   .     A
C59    C68     1.394   .     A
C60    C65     1.394   .     A
N12    C61     1.359   1_554 A
N12    C64     1.359   .     A
N12    Ni2     1.895   .     S
C61    N12     1.359   1_556 A
C61    N13     1.338   .     A
C61    C62     1.377   .     A
C62    C63     1.358   1_556 A
C62    C72     1.394   .     A
C63    C62     1.358   1_554 A
C63    C64     1.377   .     A
C63    C69     1.394   .     A
C64    N15     1.338   .     A
C65    C66     1.411   .     A
C65    H19     1.084   .     S
C66    C67     1.435   .     A
C66    C89     1.405   .     A
C67    C68     1.411   .     A
C67    C92     1.405   .     A
C68    H20     1.084   .     S
C69    C70     1.412   .     A
C69    H21     1.084   .     S
C70    C71     1.432   1_554 A
C70    C93     1.403   .     A
C71    C70     1.432   1_556 A
C71    C72     1.411   .     A
C71    C96     1.403   .     A
C72    H22     1.084   .     S
N14    C73     1.359   .     A
N14    C76     1.359   .     A
N14    Ni2     1.895   .     S
C73    N15     1.338   .     A
C73    C74     1.377   .     A
C74    C75     1.359   .     A
C74    C80     1.394   .     A
C75    C76     1.377   .     A
C75    C77     1.394   .     A
C76    N16     1.338   .     A
C77    C78     1.411   .     A
C77    H23     1.084   .     S
C78    C79     1.435   .     A
C78    C81     1.405   .     A
C79    C80     1.411   .     A
C79    C84     1.405   .     A
C80    H24     1.084   .     S
C81    C82     1.396   .     A
C81    H25     1.083   .     S
C82    C83     1.374   .     A
C82    O9      1.381   .     S
C83    C84     1.396   .     A
C83    O10     1.381   .     S
C84    H26     1.083   .     S
C85    C86     1.396   .     A
C85    H27     1.083   .     S
C86    C87     1.374   1_554 A
C86    O11     1.381   .     S
C87    C86     1.374   1_556 A
C87    C88     1.396   .     A
C87    O12     1.381   .     S
C88    H28     1.083   .     S
C89    C90     1.396   .     A
C89    H29     1.083   .     S
C90    C91     1.374   .     A
C90    O13     1.381   .     S
C91    C92     1.396   .     A
C91    O14     1.381   .     S
C92    H30     1.083   .     S
C93    C94     1.397   .     A
C93    H31     1.084   .     S
C94    C95     1.412   1_554 A
C94    O15     1.395   .     S
C95    C94     1.412   1_556 A
C95    C96     1.397   .     A
C95    O16     1.395   .     S
C96    H32     1.084   .     S
O9     Cu2     1.812   .     S
O10    Cu2     1.812   .     S
O11    Cu1     1.812   .     S
O12    Cu1     1.812   1_556 S
O13    Cu2     1.812   .     S
O14    Cu2     1.812   .     S
O15    Zn1     1.800   .     S
O16    Zn1     1.800   1_556 S
Ni2    N11     1.895   1_554 S
C97    C98     1.411   .     A
C97    C102    1.394   .     A
C97    H33     1.084   .     S
C98    C99     1.435   1_556 A
C98    C133    1.405   .     A
C99    C98     1.435   1_554 A
C99    C100    1.411   .     A
C99    C136    1.405   .     A
C100   C101    1.394   .     A
C100   H34     1.084   .     S
C101   C102    1.359   1_554 A
C101   C104    1.377   .     A
C102   C101    1.359   1_556 A
C102   C103    1.377   .     A
C103   N17     1.359   1_556 A
C103   N24     1.338   .     A
N17    C103    1.359   1_554 A
N17    C104    1.359   .     A
N17    Ni3     1.895   .     S
C104   N18     1.338   .     A
N18    C105    1.338   .     A
C105   N19     1.359   .     A
C105   C108    1.377   .     A
N19    C106    1.359   .     A
N19    Ni3     1.895   .     S
C106   C107    1.377   .     A
C106   N21     1.338   .     A
C107   C108    1.359   .     A
C107   C116    1.394   .     A
C108   C113    1.394   .     A
N20    C109    1.359   .     A
N20    C112    1.359   1_554 A
N20    Ni3     1.895   .     S
C109   N21     1.338   .     A
C109   C110    1.377   .     A
C110   C111    1.358   1_554 A
C110   C120    1.394   .     A
C111   C110    1.358   1_556 A
C111   C112    1.377   .     A
C111   C117    1.394   .     A
C112   N20     1.359   1_556 A
C112   N23     1.338   .     A
C113   C114    1.411   .     A
C113   H35     1.084   .     S
C114   C115    1.435   .     A
C114   C137    1.405   .     A
C115   C116    1.411   .     A
C115   C140    1.405   .     A
C116   H36     1.084   .     S
C117   C118    1.412   .     A
C117   H37     1.084   .     S
C118   C119    1.432   1_556 A
C118   C141    1.403   .     A
C119   C118    1.432   1_554 A
C119   C120    1.411   .     A
C119   C144    1.403   .     A
C120   H38     1.084   .     S
N22    C121    1.359   .     A
N22    C124    1.359   .     A
N22    Ni3     1.895   1_556 S
C121   N23     1.338   .     A
C121   C122    1.377   .     A
C122   C123    1.359   .     A
C122   C128    1.394   .     A
C123   C124    1.377   .     A
C123   C125    1.394   .     A
C124   N24     1.338   .     A
C125   C126    1.411   .     A
C125   H39     1.084   .     S
C126   C127    1.435   .     A
C126   C129    1.405   .     A
C127   C128    1.411   .     A
C127   C132    1.405   .     A
C128   H40     1.084   .     S
C129   C130    1.396   .     A
C129   H41     1.083   .     S
C130   C131    1.374   .     A
C130   O17     1.381   .     S
C131   C132    1.396   .     A
C131   O18     1.381   .     S
C132   H42     1.083   .     S
C133   C134    1.396   .     A
C133   H43     1.083   .     S
C134   C135    1.374   1_556 A
C134   O19     1.381   .     S
C135   C134    1.374   1_554 A
C135   C136    1.396   .     A
C135   O20     1.381   .     S
C136   H44     1.083   .     S
C137   C138    1.396   .     A
C137   H45     1.083   .     S
C138   C139    1.374   .     A
C138   O21     1.381   .     S
C139   C140    1.396   .     A
C139   O22     1.381   .     S
C140   H46     1.083   .     S
C141   C142    1.397   .     A
C141   H47     1.084   .     S
C142   C143    1.412   1_556 A
C142   O23     1.395   .     S
C143   C142    1.412   1_554 A
C143   C144    1.397   .     A
C143   O24     1.395   .     S
C144   H48     1.084   .     S
O17    Cu3     1.812   .     S
O18    Cu3     1.812   .     S
O19    Cu1     1.812   1_556 S
O20    Cu1     1.812   .     S
O21    Cu3     1.812   .     S
O22    Cu3     1.812   .     S
O23    Zn2     1.800   1_556 S
O24    Zn2     1.800   .     S
Ni3    N22     1.895   1_554 S
Zn1    O7      1.800   1_455 S
Zn1    O16     1.800   1_554 S
Zn2    O23     1.800   1_554 S
Zn2    O3      1.800   1_455 S
Cu1    O12     1.812   1_554 S
Cu1    O19     1.812   1_554 S
Cu4    O5      1.812   1_545 S
Cu4    O1      1.812   1_545 S
