data_clh-TP_O-Zntet
_audit_creation_date              2021-11-06
_audit_creation_method            'Materials Studio'
_symmetry_space_group_name_H-M    'P1'
_symmetry_Int_Tables_number       1
_symmetry_cell_setting            triclinic
loop_
_symmetry_equiv_pos_as_xyz
  x,y,z
_cell_length_a                    21.4436
_cell_length_b                    21.4436
_cell_length_c                    73.7434
_cell_angle_alpha                 89.9998
_cell_angle_beta                  90.0000
_cell_angle_gamma                 90.0000
loop_
_atom_site_label
_atom_site_type_symbol
_atom_site_fract_x
_atom_site_fract_y
_atom_site_fract_z
_atom_site_U_iso_or_equiv
_atom_site_adp_type
_atom_site_occupancy
C1     C     0.50000   0.06673   0.08393   0.00000  Uiso   1.00
C2     C     0.50000   0.03332   0.10076   0.00000  Uiso   1.00
C3     C     0.50000   0.96678   0.10076   0.00000  Uiso   1.00
C4     C     0.50000   0.93337   0.08393   0.00000  Uiso   1.00
C5     C     0.50000   0.96663   0.06717   0.00000  Uiso   1.00
C6     C     0.50000   0.03346   0.06717   0.00000  Uiso   1.00
C7     C     0.50000   0.86692   0.08451   0.00000  Uiso   1.00
C8     C     0.50000   0.83542   0.10095   0.00000  Uiso   1.00
C9     C     0.50000   0.86712   0.11691   0.00000  Uiso   1.00
C10    C     0.50000   0.93184   0.11720   0.00000  Uiso   1.00
C11    C     0.50000   0.13318   0.08451   0.00000  Uiso   1.00
C12    C     0.50000   0.16467   0.10095   0.00000  Uiso   1.00
C13    C     0.50000   0.13298   0.11691   0.00000  Uiso   1.00
C14    C     0.50000   0.06826   0.11720   0.00000  Uiso   1.00
C15    C     0.50000   0.06496   0.05015   0.00000  Uiso   1.00
C16    C     0.50000   0.03174   0.03400   0.00000  Uiso   1.00
C17    C     0.50000   0.96835   0.03400   0.00000  Uiso   1.00
C18    C     0.50000   0.93513   0.05015   0.00000  Uiso   1.00
H1     H     0.50000   0.83770   0.07267   0.00000  Uiso   1.00
O1     O     0.50000   0.77110   0.10216   0.00000  Uiso   1.00
O2     O     0.50000   0.83137   0.13251   0.00000  Uiso   1.00
H2     H     0.50000   0.95249   0.13048   0.00000  Uiso   1.00
H3     H     0.50000   0.16239   0.07267   0.00000  Uiso   1.00
O3     O     0.50000   0.22900   0.10216   0.00000  Uiso   1.00
O4     O     0.50000   0.16872   0.13251   0.00000  Uiso   1.00
H4     H     0.50000   0.04761   0.13048   0.00000  Uiso   1.00
H5     H     0.50000   0.11483   0.04871   0.00000  Uiso   1.00
O5     O     0.50000   0.06031   0.01720   0.00000  Uiso   1.00
O6     O     0.50000   0.93978   0.01720   0.00000  Uiso   1.00
H6     H     0.50000   0.88527   0.04871   0.00000  Uiso   1.00
C19    C     0.96664   0.50000   0.56717   0.00000  Uiso   1.00
C20    C     0.03346   0.50000   0.56717   0.00000  Uiso   1.00
C21    C     0.06673   0.50000   0.58393   0.00000  Uiso   1.00
C22    C     0.03332   0.50000   0.60076   0.00000  Uiso   1.00
C23    C     0.96678   0.50000   0.60076   0.00000  Uiso   1.00
C24    C     0.93337   0.50000   0.58393   0.00000  Uiso   1.00
C25    C     0.06826   0.50000   0.61720   0.00000  Uiso   1.00
C26    C     0.13298   0.50000   0.61691   0.00000  Uiso   1.00
C27    C     0.16468   0.50000   0.60095   0.00000  Uiso   1.00
C28    C     0.13318   0.50000   0.58451   0.00000  Uiso   1.00
C29    C     0.93513   0.50000   0.55015   0.00000  Uiso   1.00
C30    C     0.96835   0.50000   0.53400   0.00000  Uiso   1.00
C31    C     0.03174   0.50000   0.53400   0.00000  Uiso   1.00
C32    C     0.06496   0.50000   0.55015   0.00000  Uiso   1.00
C33    C     0.86692   0.50000   0.58451   0.00000  Uiso   1.00
C34    C     0.83542   0.50000   0.60095   0.00000  Uiso   1.00
C35    C     0.86712   0.50000   0.61691   0.00000  Uiso   1.00
C36    C     0.93184   0.50000   0.61720   0.00000  Uiso   1.00
H7     H     0.04762   0.50000   0.63048   0.00000  Uiso   1.00
O7     O     0.16873   0.50000   0.63251   0.00000  Uiso   1.00
O8     O     0.22900   0.50000   0.60216   0.00000  Uiso   1.00
H8     H     0.16240   0.50000   0.57267   0.00000  Uiso   1.00
H9     H     0.88527   0.50000   0.54871   0.00000  Uiso   1.00
O9     O     0.93978   0.50000   0.51720   0.00000  Uiso   1.00
O10    O     0.06031   0.50000   0.51720   0.00000  Uiso   1.00
H10    H     0.11483   0.50000   0.54871   0.00000  Uiso   1.00
H11    H     0.83770   0.50000   0.57267   0.00000  Uiso   1.00
O11    O     0.77110   0.50000   0.60216   0.00000  Uiso   1.00
O12    O     0.83138   0.50000   0.63251   0.00000  Uiso   1.00
H12    H     0.95249   0.50000   0.63048   0.00000  Uiso   1.00
C37    C     0.50000   0.96678   0.89924   0.00000  Uiso   1.00
C38    C     0.50000   0.93337   0.91607   0.00000  Uiso   1.00
C39    C     0.50000   0.96664   0.93283   0.00000  Uiso   1.00
C40    C     0.50000   0.03346   0.93283   0.00000  Uiso   1.00
C41    C     0.50000   0.06673   0.91607   0.00000  Uiso   1.00
C42    C     0.50000   0.03332   0.89924   0.00000  Uiso   1.00
C43    C     0.50000   0.06496   0.94985   0.00000  Uiso   1.00
C44    C     0.50000   0.03174   0.96600   0.00000  Uiso   1.00
C45    C     0.50000   0.96835   0.96600   0.00000  Uiso   1.00
C46    C     0.50000   0.93513   0.94985   0.00000  Uiso   1.00
C47    C     0.50000   0.93184   0.88280   0.00000  Uiso   1.00
C48    C     0.50000   0.86713   0.88309   0.00000  Uiso   1.00
C49    C     0.50000   0.83543   0.89905   0.00000  Uiso   1.00
C50    C     0.50000   0.86692   0.91549   0.00000  Uiso   1.00
C51    C     0.50000   0.06827   0.88280   0.00000  Uiso   1.00
C52    C     0.50000   0.13298   0.88309   0.00000  Uiso   1.00
C53    C     0.50000   0.16468   0.89905   0.00000  Uiso   1.00
C54    C     0.50000   0.13318   0.91549   0.00000  Uiso   1.00
H13    H     0.50000   0.11483   0.95129   0.00000  Uiso   1.00
O13    O     0.50000   0.06031   0.98281   0.00000  Uiso   1.00
O14    O     0.50000   0.93979   0.98281   0.00000  Uiso   1.00
H14    H     0.50000   0.88527   0.95129   0.00000  Uiso   1.00
H15    H     0.50000   0.95249   0.86952   0.00000  Uiso   1.00
O15    O     0.50000   0.83138   0.86749   0.00000  Uiso   1.00
O16    O     0.50000   0.77110   0.89784   0.00000  Uiso   1.00
H16    H     0.50000   0.83770   0.92733   0.00000  Uiso   1.00
H17    H     0.50000   0.04762   0.86952   0.00000  Uiso   1.00
O17    O     0.50000   0.16873   0.86749   0.00000  Uiso   1.00
O18    O     0.50000   0.22900   0.89784   0.00000  Uiso   1.00
H18    H     0.50000   0.16240   0.92733   0.00000  Uiso   1.00
C55    C     0.96664   0.50000   0.43283   0.00000  Uiso   1.00
C56    C     0.03346   0.50000   0.43283   0.00000  Uiso   1.00
C57    C     0.06673   0.50000   0.41607   0.00000  Uiso   1.00
C58    C     0.03332   0.50000   0.39924   0.00000  Uiso   1.00
C59    C     0.96678   0.50000   0.39924   0.00000  Uiso   1.00
C60    C     0.93337   0.50000   0.41607   0.00000  Uiso   1.00
C61    C     0.06826   0.50000   0.38280   0.00000  Uiso   1.00
C62    C     0.13298   0.50000   0.38309   0.00000  Uiso   1.00
C63    C     0.16468   0.50000   0.39905   0.00000  Uiso   1.00
C64    C     0.13318   0.50000   0.41549   0.00000  Uiso   1.00
C65    C     0.93513   0.50000   0.44985   0.00000  Uiso   1.00
C66    C     0.96835   0.50000   0.46600   0.00000  Uiso   1.00
C67    C     0.03174   0.50000   0.46600   0.00000  Uiso   1.00
C68    C     0.06496   0.50000   0.44985   0.00000  Uiso   1.00
C69    C     0.86692   0.50000   0.41549   0.00000  Uiso   1.00
C70    C     0.83542   0.50000   0.39905   0.00000  Uiso   1.00
C71    C     0.86712   0.50000   0.38309   0.00000  Uiso   1.00
C72    C     0.93184   0.50000   0.38280   0.00000  Uiso   1.00
H19    H     0.04761   0.50000   0.36952   0.00000  Uiso   1.00
O19    O     0.16873   0.50000   0.36749   0.00000  Uiso   1.00
O20    O     0.22900   0.50000   0.39784   0.00000  Uiso   1.00
H20    H     0.16240   0.50000   0.42733   0.00000  Uiso   1.00
H21    H     0.88527   0.50000   0.45129   0.00000  Uiso   1.00
O21    O     0.93978   0.50000   0.48280   0.00000  Uiso   1.00
O22    O     0.06031   0.50000   0.48280   0.00000  Uiso   1.00
H22    H     0.11483   0.50000   0.45129   0.00000  Uiso   1.00
H23    H     0.83770   0.50000   0.42733   0.00000  Uiso   1.00
O23    O     0.77110   0.50000   0.39784   0.00000  Uiso   1.00
O24    O     0.83138   0.50000   0.36749   0.00000  Uiso   1.00
H24    H     0.95249   0.50000   0.36952   0.00000  Uiso   1.00
C73    C     0.50000   0.46679   0.15113   0.00000  Uiso   1.00
C74    C     0.50000   0.43339   0.16796   0.00000  Uiso   1.00
C75    C     0.50001   0.46669   0.18473   0.00000  Uiso   1.00
C76    C     0.50001   0.53340   0.18473   0.00000  Uiso   1.00
C77    C     0.50000   0.56670   0.16796   0.00000  Uiso   1.00
C78    C     0.50000   0.53330   0.15113   0.00000  Uiso   1.00
C79    C     0.50001   0.56497   0.20171   0.00000  Uiso   1.00
C80    C     0.50002   0.53260   0.21802   0.00000  Uiso   1.00
C81    C     0.50002   0.46748   0.21802   0.00000  Uiso   1.00
C82    C     0.50001   0.43512   0.20171   0.00000  Uiso   1.00
C83    C     0.50000   0.43186   0.13468   0.00000  Uiso   1.00
C84    C     0.50000   0.36715   0.13496   0.00000  Uiso   1.00
C85    C     0.50000   0.33545   0.15092   0.00000  Uiso   1.00
C86    C     0.50000   0.36692   0.16736   0.00000  Uiso   1.00
C87    C     0.50000   0.56824   0.13468   0.00000  Uiso   1.00
C88    C     0.50000   0.63295   0.13496   0.00000  Uiso   1.00
C89    C     0.50000   0.66465   0.15092   0.00000  Uiso   1.00
C90    C     0.50000   0.63317   0.16736   0.00000  Uiso   1.00
H25    H     0.50001   0.61485   0.20304   0.00000  Uiso   1.00
O25    O     0.50003   0.56474   0.23449   0.00000  Uiso   1.00
O26    O     0.50003   0.43533   0.23449   0.00000  Uiso   1.00
H26    H     0.50001   0.38523   0.20303   0.00000  Uiso   1.00
H27    H     0.50000   0.45250   0.12140   0.00000  Uiso   1.00
O27    O     0.50000   0.33141   0.11936   0.00000  Uiso   1.00
O28    O     0.50000   0.27113   0.14971   0.00000  Uiso   1.00
H28    H     0.50000   0.33760   0.17917   0.00000  Uiso   1.00
H29    H     0.50000   0.54759   0.12140   0.00000  Uiso   1.00
O29    O     0.50000   0.66868   0.11936   0.00000  Uiso   1.00
O30    O     0.50000   0.72897   0.14971   0.00000  Uiso   1.00
H30    H     0.50000   0.66249   0.17918   0.00000  Uiso   1.00
C91    C     0.46669   0.50001   0.68473   0.00000  Uiso   1.00
C92    C     0.53340   0.50001   0.68473   0.00000  Uiso   1.00
C93    C     0.56670   0.50000   0.66796   0.00000  Uiso   1.00
C94    C     0.53331   0.50000   0.65113   0.00000  Uiso   1.00
C95    C     0.46679   0.50000   0.65113   0.00000  Uiso   1.00
C96    C     0.43339   0.50000   0.66796   0.00000  Uiso   1.00
C97    C     0.56824   0.50000   0.63468   0.00000  Uiso   1.00
C98    C     0.63295   0.50000   0.63496   0.00000  Uiso   1.00
C99    C     0.66465   0.50000   0.65092   0.00000  Uiso   1.00
C100   C     0.63318   0.50000   0.66736   0.00000  Uiso   1.00
C101   C     0.43512   0.50002   0.70171   0.00000  Uiso   1.00
C102   C     0.46748   0.50002   0.71802   0.00000  Uiso   1.00
C103   C     0.53260   0.50002   0.71803   0.00000  Uiso   1.00
C104   C     0.56497   0.50002   0.70171   0.00000  Uiso   1.00
C105   C     0.36692   0.50000   0.66736   0.00000  Uiso   1.00
C106   C     0.33545   0.50000   0.65092   0.00000  Uiso   1.00
C107   C     0.36715   0.50000   0.63496   0.00000  Uiso   1.00
C108   C     0.43186   0.50000   0.63468   0.00000  Uiso   1.00
H31    H     0.54760   0.50000   0.62140   0.00000  Uiso   1.00
O31    O     0.66869   0.49999   0.61936   0.00000  Uiso   1.00
O32    O     0.72897   0.50000   0.64971   0.00000  Uiso   1.00
H32    H     0.66249   0.50000   0.67918   0.00000  Uiso   1.00
H33    H     0.38523   0.50002   0.70303   0.00000  Uiso   1.00
O33    O     0.43534   0.50003   0.73449   0.00000  Uiso   1.00
O34    O     0.56474   0.50003   0.73450   0.00000  Uiso   1.00
H34    H     0.61486   0.50002   0.70304   0.00000  Uiso   1.00
H35    H     0.33760   0.50000   0.67917   0.00000  Uiso   1.00
O35    O     0.27113   0.50000   0.64971   0.00000  Uiso   1.00
O36    O     0.33142   0.49999   0.61936   0.00000  Uiso   1.00
H36    H     0.45251   0.50000   0.62140   0.00000  Uiso   1.00
C109   C     0.50000   0.56671   0.83204   0.00000  Uiso   1.00
C110   C     0.50000   0.53331   0.84887   0.00000  Uiso   1.00
C111   C     0.50000   0.46680   0.84887   0.00000  Uiso   1.00
C112   C     0.50000   0.43340   0.83204   0.00000  Uiso   1.00
C113   C     0.50001   0.46669   0.81527   0.00000  Uiso   1.00
C114   C     0.50001   0.53341   0.81527   0.00000  Uiso   1.00
C115   C     0.50000   0.36692   0.83264   0.00000  Uiso   1.00
C116   C     0.50000   0.33545   0.84908   0.00000  Uiso   1.00
C117   C     0.50000   0.36716   0.86504   0.00000  Uiso   1.00
C118   C     0.50000   0.43186   0.86532   0.00000  Uiso   1.00
C119   C     0.50000   0.63318   0.83264   0.00000  Uiso   1.00
C120   C     0.50000   0.66465   0.84908   0.00000  Uiso   1.00
C121   C     0.50000   0.63295   0.86504   0.00000  Uiso   1.00
C122   C     0.50000   0.56825   0.86532   0.00000  Uiso   1.00
C123   C     0.50001   0.56497   0.79829   0.00000  Uiso   1.00
C124   C     0.50002   0.53261   0.78198   0.00000  Uiso   1.00
C125   C     0.50002   0.46748   0.78198   0.00000  Uiso   1.00
C126   C     0.50001   0.43512   0.79829   0.00000  Uiso   1.00
H37    H     0.50000   0.33761   0.82083   0.00000  Uiso   1.00
O37    O     0.50000   0.27113   0.85030   0.00000  Uiso   1.00
O38    O     0.50000   0.33142   0.88064   0.00000  Uiso   1.00
H38    H     0.50000   0.45251   0.87860   0.00000  Uiso   1.00
H39    H     0.50000   0.66250   0.82083   0.00000  Uiso   1.00
O39    O     0.50000   0.72897   0.85029   0.00000  Uiso   1.00
O40    O     0.50000   0.66869   0.88064   0.00000  Uiso   1.00
H40    H     0.50000   0.54760   0.87860   0.00000  Uiso   1.00
H41    H     0.50001   0.61486   0.79697   0.00000  Uiso   1.00
O41    O     0.50003   0.56474   0.76551   0.00000  Uiso   1.00
O42    O     0.50003   0.43534   0.76551   0.00000  Uiso   1.00
H42    H     0.50001   0.38524   0.79697   0.00000  Uiso   1.00
C127   C     0.46669   0.50001   0.31527   0.00000  Uiso   1.00
C128   C     0.53340   0.50001   0.31527   0.00000  Uiso   1.00
C129   C     0.56670   0.50000   0.33204   0.00000  Uiso   1.00
C130   C     0.53331   0.50000   0.34887   0.00000  Uiso   1.00
C131   C     0.46679   0.50000   0.34887   0.00000  Uiso   1.00
C132   C     0.43339   0.50000   0.33204   0.00000  Uiso   1.00
C133   C     0.56824   0.50000   0.36532   0.00000  Uiso   1.00
C134   C     0.63295   0.50000   0.36504   0.00000  Uiso   1.00
C135   C     0.66465   0.50000   0.34908   0.00000  Uiso   1.00
C136   C     0.63317   0.50000   0.33264   0.00000  Uiso   1.00
C137   C     0.43512   0.50001   0.29829   0.00000  Uiso   1.00
C138   C     0.46748   0.50002   0.28198   0.00000  Uiso   1.00
C139   C     0.53260   0.50002   0.28198   0.00000  Uiso   1.00
C140   C     0.56497   0.50001   0.29829   0.00000  Uiso   1.00
C141   C     0.36692   0.50000   0.33264   0.00000  Uiso   1.00
C142   C     0.33545   0.50000   0.34908   0.00000  Uiso   1.00
C143   C     0.36715   0.50000   0.36504   0.00000  Uiso   1.00
C144   C     0.43186   0.50000   0.36532   0.00000  Uiso   1.00
H43    H     0.54760   0.50000   0.37860   0.00000  Uiso   1.00
O43    O     0.66869   0.50000   0.38064   0.00000  Uiso   1.00
O44    O     0.72897   0.50000   0.35029   0.00000  Uiso   1.00
H44    H     0.66249   0.50000   0.32082   0.00000  Uiso   1.00
H45    H     0.38523   0.50001   0.29697   0.00000  Uiso   1.00
O45    O     0.43534   0.50003   0.26551   0.00000  Uiso   1.00
O46    O     0.56474   0.50003   0.26551   0.00000  Uiso   1.00
H46    H     0.61486   0.50001   0.29696   0.00000  Uiso   1.00
H47    H     0.33760   0.50000   0.32083   0.00000  Uiso   1.00
O47    O     0.27113   0.50000   0.35030   0.00000  Uiso   1.00
O48    O     0.33142   0.50000   0.38064   0.00000  Uiso   1.00
H48    H     0.45251   0.50000   0.37860   0.00000  Uiso   1.00
Zn1    Zn    0.50003   0.50003   0.25000   0.00000  Uiso   1.00
Zn2    Zn    0.50003   0.50004   0.75000   0.00000  Uiso   1.00
Cu1    Cu    0.49999   0.25007   0.12593   0.00000  Uiso   1.00
Cu2    Cu    0.75003   0.49998   0.62593   0.00000  Uiso   1.00
Cu3    Cu    0.49998   0.75003   0.12593   0.00000  Uiso   1.00
Cu4    Cu    0.25007   0.49998   0.62593   0.00000  Uiso   1.00
Cu5    Cu    0.49998   0.75004   0.87407   0.00000  Uiso   1.00
Cu6    Cu    0.25007   0.49998   0.37407   0.00000  Uiso   1.00
Cu7    Cu    0.49998   0.25007   0.87407   0.00000  Uiso   1.00
Cu8    Cu    0.75003   0.49998   0.37407   0.00000  Uiso   1.00
Cu9    Cu    0.49998   0.00005   0.00000   0.00000  Uiso   1.00
Cu10   Cu    0.00005   0.49998   0.50000   0.00000  Uiso   1.00
loop_
_geom_bond_atom_site_label_1
_geom_bond_atom_site_label_2
_geom_bond_distance
_geom_bond_site_symmetry_2
_ccdc_geom_bond_type
C1     C2      1.433   .     A
C1     C6      1.427   .     A
C1     C11     1.426   .     A
C2     C3      1.427   1_545 A
C2     C14     1.426   .     A
C3     C2      1.427   1_565 A
C3     C4      1.433   .     A
C3     C10     1.426   .     A
C4     C5      1.427   .     A
C4     C7      1.426   .     A
C5     C6      1.433   1_565 A
C5     C18     1.426   .     A
C6     C5      1.433   1_545 A
C6     C15     1.426   .     A
C7     C8      1.388   .     A
C7     H1      1.075   .     S
C8     C9      1.359   .     A
C8     O1      1.382   .     S
C9     C10     1.388   .     A
C9     O2      1.382   .     S
C10    H2      1.075   .     S
C11    C12     1.388   .     A
C11    H3      1.075   .     S
C12    C13     1.359   .     A
C12    O3      1.382   .     S
C13    C14     1.388   .     A
C13    O4      1.382   .     S
C14    H4      1.075   .     S
C15    C16     1.388   .     A
C15    H5      1.075   .     S
C16    C17     1.359   1_545 A
C16    O5      1.382   .     S
C17    C16     1.359   1_565 A
C17    C18     1.388   .     A
C17    O6      1.382   .     S
C18    H6      1.075   .     S
O1     Cu3     1.810   .     S
O2     Cu3     1.810   .     S
O3     Cu1     1.810   .     S
O4     Cu1     1.810   .     S
O5     Cu9     1.810   .     S
O6     Cu9     1.810   1_565 S
C19    C20     1.433   1_655 A
C19    C24     1.427   .     A
C19    C29     1.426   .     A
C20    C19     1.433   1_455 A
C20    C21     1.427   .     A
C20    C32     1.426   .     A
C21    C22     1.433   .     A
C21    C28     1.426   .     A
C22    C23     1.427   1_455 A
C22    C25     1.426   .     A
C23    C22     1.427   1_655 A
C23    C24     1.433   .     A
C23    C36     1.426   .     A
C24    C33     1.426   .     A
C25    C26     1.388   .     A
C25    H7      1.075   .     S
C26    C27     1.359   .     A
C26    O7      1.382   .     S
C27    C28     1.388   .     A
C27    O8      1.382   .     S
C28    H8      1.075   .     S
C29    C30     1.388   .     A
C29    H9      1.075   .     S
C30    C31     1.359   1_655 A
C30    O9      1.382   .     S
C31    C30     1.359   1_455 A
C31    C32     1.388   .     A
C31    O10     1.382   .     S
C32    H10     1.075   .     S
C33    C34     1.388   .     A
C33    H11     1.075   .     S
C34    C35     1.359   .     A
C34    O11     1.382   .     S
C35    C36     1.388   .     A
C35    O12     1.382   .     S
C36    H12     1.075   .     S
O7     Cu4     1.810   .     S
O8     Cu4     1.810   .     S
O9     Cu10    1.810   1_655 S
O10    Cu10    1.810   .     S
O11    Cu2     1.810   .     S
O12    Cu2     1.810   .     S
C37    C38     1.433   .     A
C37    C42     1.427   1_565 A
C37    C47     1.426   .     A
C38    C39     1.427   .     A
C38    C50     1.426   .     A
C39    C40     1.433   1_565 A
C39    C46     1.426   .     A
C40    C39     1.433   1_545 A
C40    C41     1.427   .     A
C40    C43     1.426   .     A
C41    C42     1.433   .     A
C41    C54     1.426   .     A
C42    C37     1.427   1_545 A
C42    C51     1.426   .     A
C43    C44     1.388   .     A
C43    H13     1.075   .     S
C44    C45     1.359   1_545 A
C44    O13     1.382   .     S
C45    C44     1.359   1_565 A
C45    C46     1.388   .     A
C45    O14     1.382   .     S
C46    H14     1.075   .     S
C47    C48     1.388   .     A
C47    H15     1.075   .     S
C48    C49     1.359   .     A
C48    O15     1.382   .     S
C49    C50     1.388   .     A
C49    O16     1.382   .     S
C50    H16     1.075   .     S
C51    C52     1.388   .     A
C51    H17     1.075   .     S
C52    C53     1.359   .     A
C52    O17     1.382   .     S
C53    C54     1.388   .     A
C53    O18     1.382   .     S
C54    H18     1.075   .     S
O13    Cu9     1.810   1_556 S
O14    Cu9     1.810   1_566 S
O15    Cu5     1.810   .     S
O16    Cu5     1.810   .     S
O17    Cu7     1.810   .     S
O18    Cu7     1.810   .     S
C55    C56     1.433   1_655 A
C55    C60     1.427   .     A
C55    C65     1.426   .     A
C56    C55     1.433   1_455 A
C56    C57     1.427   .     A
C56    C68     1.426   .     A
C57    C58     1.433   .     A
C57    C64     1.426   .     A
C58    C59     1.427   1_455 A
C58    C61     1.426   .     A
C59    C58     1.427   1_655 A
C59    C60     1.433   .     A
C59    C72     1.426   .     A
C60    C69     1.426   .     A
C61    C62     1.388   .     A
C61    H19     1.075   .     S
C62    C63     1.359   .     A
C62    O19     1.382   .     S
C63    C64     1.388   .     A
C63    O20     1.382   .     S
C64    H20     1.075   .     S
C65    C66     1.388   .     A
C65    H21     1.075   .     S
C66    C67     1.359   1_655 A
C66    O21     1.382   .     S
C67    C66     1.359   1_455 A
C67    C68     1.388   .     A
C67    O22     1.382   .     S
C68    H22     1.075   .     S
C69    C70     1.388   .     A
C69    H23     1.075   .     S
C70    C71     1.359   .     A
C70    O23     1.382   .     S
C71    C72     1.388   .     A
C71    O24     1.382   .     S
C72    H24     1.075   .     S
O19    Cu6     1.810   .     S
O20    Cu6     1.810   .     S
O21    Cu10    1.810   1_655 S
O22    Cu10    1.810   .     S
O23    Cu8     1.810   .     S
O24    Cu8     1.810   .     S
C73    C74     1.433   .     A
C73    C78     1.426   .     A
C73    C83     1.426   .     A
C74    C75     1.428   .     A
C74    C86     1.426   .     A
C75    C76     1.431   .     A
C75    C82     1.424   .     A
C76    C77     1.428   .     A
C76    C79     1.424   .     A
C77    C78     1.433   .     A
C77    C90     1.426   .     A
C78    C87     1.426   .     A
C79    C80     1.389   .     A
C79    H25     1.074   .     S
C80    C81     1.397   .     A
C80    O25     1.396   .     S
C81    C82     1.389   .     A
C81    O26     1.396   .     S
C82    H26     1.074   .     S
C83    C84     1.388   .     A
C83    H27     1.074   .     S
C84    C85     1.359   .     A
C84    O27     1.382   .     S
C85    C86     1.388   .     A
C85    O28     1.382   .     S
C86    H28     1.074   .     S
C87    C88     1.388   .     A
C87    H29     1.074   .     S
C88    C89     1.359   .     A
C88    O29     1.382   .     S
C89    C90     1.388   .     A
C89    O30     1.382   .     S
C90    H30     1.074   .     S
O25    Zn1     1.798   .     S
O26    Zn1     1.798   .     S
O27    Cu1     1.810   .     S
O28    Cu1     1.810   .     S
O29    Cu3     1.810   .     S
O30    Cu3     1.810   .     S
C91    C92     1.431   .     A
C91    C96     1.428   .     A
C91    C101    1.424   .     A
C92    C93     1.428   .     A
C92    C104    1.424   .     A
C93    C94     1.433   .     A
C93    C100    1.426   .     A
C94    C95     1.426   .     A
C94    C97     1.426   .     A
C95    C96     1.433   .     A
C95    C108    1.426   .     A
C96    C105    1.426   .     A
C97    C98     1.388   .     A
C97    H31     1.074   .     S
C98    C99     1.359   .     A
C98    O31     1.382   .     S
C99    C100    1.388   .     A
C99    O32     1.382   .     S
C100   H32     1.074   .     S
C101   C102    1.389   .     A
C101   H33     1.074   .     S
C102   C103    1.397   .     A
C102   O33     1.396   .     S
C103   C104    1.389   .     A
C103   O34     1.396   .     S
C104   H34     1.074   .     S
C105   C106    1.388   .     A
C105   H35     1.074   .     S
C106   C107    1.359   .     A
C106   O35     1.382   .     S
C107   C108    1.388   .     A
C107   O36     1.382   .     S
C108   H36     1.074   .     S
O31    Cu2     1.810   .     S
O32    Cu2     1.810   .     S
O33    Zn2     1.798   .     S
O34    Zn2     1.798   .     S
O35    Cu4     1.810   .     S
O36    Cu4     1.810   .     S
C109   C110    1.433   .     A
C109   C114    1.428   .     A
C109   C119    1.426   .     A
C110   C111    1.426   .     A
C110   C122    1.426   .     A
C111   C112    1.433   .     A
C111   C118    1.426   .     A
C112   C113    1.428   .     A
C112   C115    1.426   .     A
C113   C114    1.431   .     A
C113   C126    1.424   .     A
C114   C123    1.424   .     A
C115   C116    1.388   .     A
C115   H37     1.074   .     S
C116   C117    1.359   .     A
C116   O37     1.382   .     S
C117   C118    1.388   .     A
C117   O38     1.382   .     S
C118   H38     1.074   .     S
C119   C120    1.388   .     A
C119   H39     1.074   .     S
C120   C121    1.359   .     A
C120   O39     1.382   .     S
C121   C122    1.388   .     A
C121   O40     1.382   .     S
C122   H40     1.074   .     S
C123   C124    1.389   .     A
C123   H41     1.074   .     S
C124   C125    1.397   .     A
C124   O41     1.396   .     S
C125   C126    1.389   .     A
C125   O42     1.396   .     S
C126   H42     1.074   .     S
O37    Cu7     1.810   .     S
O38    Cu7     1.810   .     S
O39    Cu5     1.810   .     S
O40    Cu5     1.810   .     S
O41    Zn2     1.798   .     S
O42    Zn2     1.798   .     S
C127   C128    1.431   .     A
C127   C132    1.428   .     A
C127   C137    1.424   .     A
C128   C129    1.428   .     A
C128   C140    1.424   .     A
C129   C130    1.433   .     A
C129   C136    1.426   .     A
C130   C131    1.426   .     A
C130   C133    1.426   .     A
C131   C132    1.433   .     A
C131   C144    1.426   .     A
C132   C141    1.426   .     A
C133   C134    1.388   .     A
C133   H43     1.074   .     S
C134   C135    1.359   .     A
C134   O43     1.382   .     S
C135   C136    1.388   .     A
C135   O44     1.382   .     S
C136   H44     1.074   .     S
C137   C138    1.389   .     A
C137   H45     1.074   .     S
C138   C139    1.397   .     A
C138   O45     1.396   .     S
C139   C140    1.389   .     A
C139   O46     1.396   .     S
C140   H46     1.074   .     S
C141   C142    1.388   .     A
C141   H47     1.074   .     S
C142   C143    1.359   .     A
C142   O47     1.382   .     S
C143   C144    1.388   .     A
C143   O48     1.382   .     S
C144   H48     1.074   .     S
O43    Cu8     1.810   .     S
O44    Cu8     1.810   .     S
O45    Zn1     1.798   .     S
O46    Zn1     1.798   .     S
O47    Cu6     1.810   .     S
O48    Cu6     1.810   .     S
Cu9    O6      1.810   1_545 S
Cu9    O13     1.810   1_554 S
Cu9    O14     1.810   1_544 S
Cu10   O9      1.810   1_455 S
Cu10   O21     1.810   1_455 S
