data_clh-B_O-Zntet
_audit_creation_date              2021-11-06
_audit_creation_method            'Materials Studio'
_symmetry_space_group_name_H-M    'P1'
_symmetry_Int_Tables_number       1
_symmetry_cell_setting            triclinic
loop_
_symmetry_equiv_pos_as_xyz
  x,y,z
_cell_length_a                    12.8463
_cell_length_b                    12.8463
_cell_length_c                    44.0218
_cell_angle_alpha                 90.0012
_cell_angle_beta                  89.9985
_cell_angle_gamma                 89.9976
loop_
_atom_site_label
_atom_site_type_symbol
_atom_site_fract_x
_atom_site_fract_y
_atom_site_fract_z
_atom_site_U_iso_or_equiv
_atom_site_adp_type
_atom_site_occupancy
C1     C     0.50011   0.05368   0.05690   0.00000  Uiso   1.00
C2     C     0.50010   0.10823   0.08447   0.00000  Uiso   1.00
C3     C     0.50009   0.05451   0.11157   0.00000  Uiso   1.00
C4     C     0.50009   0.94549   0.11157   0.00000  Uiso   1.00
C5     C     0.50010   0.89176   0.08447   0.00000  Uiso   1.00
C6     C     0.50011   0.94631   0.05690   0.00000  Uiso   1.00
O1     O     0.50011   0.10116   0.02877   0.00000  Uiso   1.00
O2     O     0.50010   0.21548   0.08657   0.00000  Uiso   1.00
O3     O     0.50008   0.11409   0.13765   0.00000  Uiso   1.00
O4     O     0.50008   0.88592   0.13765   0.00000  Uiso   1.00
O5     O     0.50010   0.78451   0.08657   0.00000  Uiso   1.00
O6     O     0.50011   0.89883   0.02877   0.00000  Uiso   1.00
C7     C     0.94547   0.50007   0.61157   0.00000  Uiso   1.00
C8     C     0.05449   0.50007   0.61157   0.00000  Uiso   1.00
C9     C     0.10822   0.50008   0.58447   0.00000  Uiso   1.00
C10    C     0.05367   0.50009   0.55690   0.00000  Uiso   1.00
C11    C     0.94630   0.50009   0.55690   0.00000  Uiso   1.00
C12    C     0.89174   0.50008   0.58447   0.00000  Uiso   1.00
O7     O     0.88589   0.50005   0.63765   0.00000  Uiso   1.00
O8     O     0.11406   0.50005   0.63765   0.00000  Uiso   1.00
O9     O     0.21547   0.50008   0.58657   0.00000  Uiso   1.00
O10    O     0.10116   0.50010   0.52877   0.00000  Uiso   1.00
O11    O     0.89882   0.50010   0.52877   0.00000  Uiso   1.00
O12    O     0.78450   0.50007   0.58657   0.00000  Uiso   1.00
C13    C     0.50009   0.94631   0.94310   0.00000  Uiso   1.00
C14    C     0.50008   0.89175   0.91553   0.00000  Uiso   1.00
C15    C     0.50006   0.94547   0.88843   0.00000  Uiso   1.00
C16    C     0.50006   0.05450   0.88843   0.00000  Uiso   1.00
C17    C     0.50008   0.10822   0.91553   0.00000  Uiso   1.00
C18    C     0.50009   0.05367   0.94310   0.00000  Uiso   1.00
O13    O     0.50010   0.89882   0.97123   0.00000  Uiso   1.00
O14    O     0.50007   0.78450   0.91343   0.00000  Uiso   1.00
O15    O     0.50004   0.88590   0.86234   0.00000  Uiso   1.00
O16    O     0.50005   0.11407   0.86234   0.00000  Uiso   1.00
O17    O     0.50007   0.21547   0.91343   0.00000  Uiso   1.00
O18    O     0.50010   0.10116   0.97123   0.00000  Uiso   1.00
C19    C     0.94549   0.50009   0.38843   0.00000  Uiso   1.00
C20    C     0.05451   0.50009   0.38843   0.00000  Uiso   1.00
C21    C     0.10823   0.50010   0.41553   0.00000  Uiso   1.00
C22    C     0.05368   0.50011   0.44310   0.00000  Uiso   1.00
C23    C     0.94631   0.50011   0.44310   0.00000  Uiso   1.00
C24    C     0.89176   0.50010   0.41553   0.00000  Uiso   1.00
O19    O     0.88592   0.50008   0.36234   0.00000  Uiso   1.00
O20    O     0.11409   0.50008   0.36234   0.00000  Uiso   1.00
O21    O     0.21548   0.50009   0.41343   0.00000  Uiso   1.00
O22    O     0.10116   0.50011   0.47123   0.00000  Uiso   1.00
O23    O     0.89882   0.50011   0.47123   0.00000  Uiso   1.00
O24    O     0.78451   0.50010   0.41343   0.00000  Uiso   1.00
C25    C     0.50005   0.44487   0.19652   0.00000  Uiso   1.00
C26    C     0.50006   0.39169   0.16872   0.00000  Uiso   1.00
C27    C     0.50007   0.44558   0.14168   0.00000  Uiso   1.00
C28    C     0.50007   0.55442   0.14168   0.00000  Uiso   1.00
C29    C     0.50006   0.60832   0.16872   0.00000  Uiso   1.00
C30    C     0.50004   0.55515   0.19652   0.00000  Uiso   1.00
O25    O     0.50003   0.39122   0.22407   0.00000  Uiso   1.00
O26    O     0.50007   0.28450   0.16649   0.00000  Uiso   1.00
O27    O     0.50009   0.38614   0.11553   0.00000  Uiso   1.00
O28    O     0.50009   0.61386   0.11553   0.00000  Uiso   1.00
O29    O     0.50007   0.71551   0.16649   0.00000  Uiso   1.00
O30    O     0.50003   0.60879   0.22407   0.00000  Uiso   1.00
C31    C     0.44556   0.50003   0.64168   0.00000  Uiso   1.00
C32    C     0.55439   0.50003   0.64168   0.00000  Uiso   1.00
C33    C     0.60829   0.50001   0.66872   0.00000  Uiso   1.00
C34    C     0.55511   0.49999   0.69652   0.00000  Uiso   1.00
C35    C     0.44483   0.49999   0.69652   0.00000  Uiso   1.00
C36    C     0.39166   0.50001   0.66873   0.00000  Uiso   1.00
O31    O     0.38612   0.50005   0.61553   0.00000  Uiso   1.00
O32    O     0.61384   0.50005   0.61553   0.00000  Uiso   1.00
O33    O     0.71548   0.50002   0.66649   0.00000  Uiso   1.00
O34    O     0.60876   0.49998   0.72407   0.00000  Uiso   1.00
O35    O     0.39119   0.49998   0.72407   0.00000  Uiso   1.00
O36    O     0.28447   0.50002   0.66649   0.00000  Uiso   1.00
C37    C     0.49999   0.55512   0.80348   0.00000  Uiso   1.00
C38    C     0.50001   0.60829   0.83127   0.00000  Uiso   1.00
C39    C     0.50003   0.55440   0.85832   0.00000  Uiso   1.00
C40    C     0.50003   0.44557   0.85832   0.00000  Uiso   1.00
C41    C     0.50002   0.39167   0.83127   0.00000  Uiso   1.00
C42    C     0.50000   0.44484   0.80348   0.00000  Uiso   1.00
O37    O     0.49998   0.60876   0.77593   0.00000  Uiso   1.00
O38    O     0.50001   0.71549   0.83351   0.00000  Uiso   1.00
O39    O     0.50005   0.61385   0.88447   0.00000  Uiso   1.00
O40    O     0.50005   0.38612   0.88447   0.00000  Uiso   1.00
O41    O     0.50002   0.28447   0.83351   0.00000  Uiso   1.00
O42    O     0.49998   0.39119   0.77593   0.00000  Uiso   1.00
C43    C     0.44559   0.50006   0.35832   0.00000  Uiso   1.00
C44    C     0.55442   0.50006   0.35832   0.00000  Uiso   1.00
C45    C     0.60832   0.50005   0.33127   0.00000  Uiso   1.00
C46    C     0.55515   0.50003   0.30348   0.00000  Uiso   1.00
C47    C     0.44487   0.50003   0.30348   0.00000  Uiso   1.00
C48    C     0.39169   0.50005   0.33127   0.00000  Uiso   1.00
O43    O     0.38614   0.50007   0.38446   0.00000  Uiso   1.00
O44    O     0.61386   0.50008   0.38447   0.00000  Uiso   1.00
O45    O     0.71551   0.50005   0.33351   0.00000  Uiso   1.00
O46    O     0.60880   0.50002   0.27593   0.00000  Uiso   1.00
O47    O     0.39123   0.50002   0.27593   0.00000  Uiso   1.00
O48    O     0.28450   0.50005   0.33350   0.00000  Uiso   1.00
Zn1    Zn    0.50002   0.50001   0.25000   0.00000  Uiso   1.00
Zn2    Zn    0.49997   0.49998   0.75000   0.00000  Uiso   1.00
Cu1    Cu    0.50009   0.25007   0.12655   0.00000  Uiso   1.00
Cu2    Cu    0.74991   0.50005   0.62655   0.00000  Uiso   1.00
Cu3    Cu    0.50009   0.74993   0.12655   0.00000  Uiso   1.00
Cu4    Cu    0.25004   0.50005   0.62655   0.00000  Uiso   1.00
Cu5    Cu    0.50004   0.74992   0.87345   0.00000  Uiso   1.00
Cu6    Cu    0.25007   0.50007   0.37345   0.00000  Uiso   1.00
Cu7    Cu    0.50005   0.25005   0.87345   0.00000  Uiso   1.00
Cu8    Cu    0.74993   0.50008   0.37345   0.00000  Uiso   1.00
Cu9    Cu    0.50008  -0.00001   1.00000   0.00000  Uiso   1.00
Cu10   Cu   -0.00001   0.50010   0.50000   0.00000  Uiso   1.00
loop_
_geom_bond_atom_site_label_1
_geom_bond_atom_site_label_2
_geom_bond_distance
_geom_bond_site_symmetry_2
_ccdc_geom_bond_type
C1     C2      1.401   .     A
C1     C6      1.379   1_545 A
C1     O1      1.380   .     S
C2     C3      1.378   .     A
C2     O2      1.381   .     S
C3     C4      1.401   1_545 A
C3     O3      1.380   .     S
C4     C3      1.401   1_565 A
C4     C5      1.378   .     A
C4     O4      1.380   .     S
C5     C6      1.401   .     A
C5     O5      1.381   .     S
C6     C1      1.379   1_565 A
C6     O6      1.380   .     S
O1     Cu9     1.815   1_554 S
O2     Cu1     1.815   .     S
O3     Cu1     1.814   .     S
O4     Cu3     1.814   .     S
O5     Cu3     1.815   .     S
O6     Cu9     1.815   1_564 S
C7     C8      1.401   1_655 A
C7     C12     1.378   .     A
C7     O7      1.380   .     S
C8     C7      1.401   1_455 A
C8     C9      1.378   .     A
C8     O8      1.380   .     S
C9     C10     1.401   .     A
C9     O9      1.381   .     S
C10    C11     1.379   1_455 A
C10    O10     1.380   .     S
C11    C10     1.379   1_655 A
C11    C12     1.401   .     A
C11    O11     1.380   .     S
C12    O12     1.381   .     S
O7     Cu2     1.814   .     S
O8     Cu4     1.814   .     S
O9     Cu4     1.815   .     S
O10    Cu10    1.815   .     S
O11    Cu10    1.815   1_655 S
O12    Cu2     1.815   .     S
C13    C14     1.401   .     A
C13    C18     1.379   1_565 A
C13    O13     1.380   .     S
C14    C15     1.378   .     A
C14    O14     1.381   .     S
C15    C16     1.401   1_565 A
C15    O15     1.380   .     S
C16    C15     1.401   1_545 A
C16    C17     1.378   .     A
C16    O16     1.380   .     S
C17    C18     1.401   .     A
C17    O17     1.381   .     S
C18    C13     1.379   1_545 A
C18    O18     1.380   .     S
O13    Cu9     1.815   1_565 S
O14    Cu5     1.815   .     S
O15    Cu5     1.814   .     S
O16    Cu7     1.814   .     S
O17    Cu7     1.815   .     S
O18    Cu9     1.815   .     S
C19    C20     1.401   1_655 A
C19    C24     1.378   .     A
C19    O19     1.380   .     S
C20    C19     1.401   1_455 A
C20    C21     1.378   .     A
C20    O20     1.380   .     S
C21    C22     1.401   .     A
C21    O21     1.381   .     S
C22    C23     1.379   1_455 A
C22    O22     1.380   .     S
C23    C22     1.379   1_655 A
C23    C24     1.401   .     A
C23    O23     1.380   .     S
C24    O24     1.381   .     S
O19    Cu8     1.814   .     S
O20    Cu6     1.814   .     S
O21    Cu6     1.815   .     S
O22    Cu10    1.815   .     S
O23    Cu10    1.815   1_655 S
O24    Cu8     1.815   .     S
C25    C26     1.401   .     A
C25    C30     1.417   .     A
C25    O25     1.395   .     S
C26    C27     1.377   .     A
C26    O26     1.381   .     S
C27    C28     1.398   .     A
C27    O27     1.381   .     S
C28    C29     1.377   .     A
C28    O28     1.381   .     S
C29    C30     1.401   .     A
C29    O29     1.381   .     S
C30    O30     1.395   .     S
O25    Zn1     1.804   .     S
O26    Cu1     1.813   .     S
O27    Cu1     1.814   .     S
O28    Cu3     1.814   .     S
O29    Cu3     1.813   .     S
O30    Zn1     1.804   .     S
C31    C32     1.398   .     A
C31    C36     1.377   .     A
C31    O31     1.381   .     S
C32    C33     1.377   .     A
C32    O32     1.381   .     S
C33    C34     1.401   .     A
C33    O33     1.381   .     S
C34    C35     1.417   .     A
C34    O34     1.395   .     S
C35    C36     1.401   .     A
C35    O35     1.395   .     S
C36    O36     1.381   .     S
O31    Cu4     1.814   .     S
O32    Cu2     1.814   .     S
O33    Cu2     1.813   .     S
O34    Zn2     1.804   .     S
O35    Zn2     1.804   .     S
O36    Cu4     1.813   .     S
C37    C38     1.401   .     A
C37    C42     1.417   .     A
C37    O37     1.395   .     S
C38    C39     1.377   .     A
C38    O38     1.381   .     S
C39    C40     1.398   .     A
C39    O39     1.381   .     S
C40    C41     1.377   .     A
C40    O40     1.381   .     S
C41    C42     1.401   .     A
C41    O41     1.381   .     S
C42    O42     1.395   .     S
O37    Zn2     1.804   .     S
O38    Cu5     1.813   .     S
O39    Cu5     1.814   .     S
O40    Cu7     1.814   .     S
O41    Cu7     1.813   .     S
O42    Zn2     1.804   .     S
C43    C44     1.398   .     A
C43    C48     1.377   .     A
C43    O43     1.381   .     S
C44    C45     1.377   .     A
C44    O44     1.381   .     S
C45    C46     1.401   .     A
C45    O45     1.381   .     S
C46    C47     1.417   .     A
C46    O46     1.395   .     S
C47    C48     1.401   .     A
C47    O47     1.395   .     S
C48    O48     1.381   .     S
O43    Cu6     1.814   .     S
O44    Cu8     1.814   .     S
O45    Cu8     1.813   .     S
O46    Zn1     1.804   .     S
O47    Zn1     1.804   .     S
O48    Cu6     1.813   .     S
Cu9    O13     1.815   1_545 S
Cu9    O1      1.815   1_556 S
Cu9    O6      1.815   1_546 S
Cu10   O23     1.815   1_455 S
Cu10   O11     1.815   1_455 S
