data_eta_Feoct_DHBQ
_audit_creation_date              2023-08-06
_audit_creation_method            'Materials Studio'
_symmetry_space_group_name_H-M    'P1'
_symmetry_Int_Tables_number       1
_symmetry_cell_setting            triclinic
loop_
_symmetry_equiv_pos_as_xyz
  x,y,z
_cell_length_a                    21.5465
_cell_length_b                    21.5465
_cell_length_c                    18.2829
_cell_angle_alpha                 90.0000
_cell_angle_beta                  90.0000
_cell_angle_gamma                 119.9990
loop_
_atom_site_label
_atom_site_type_symbol
_atom_site_fract_x
_atom_site_fract_y
_atom_site_fract_z
_atom_site_U_iso_or_equiv
_atom_site_adp_type
_atom_site_occupancy
Fe1    Fe    0.19875   0.59938   0.16667   0.00000  Uiso   1.00
Fe2    Fe    0.59938   0.19875   0.50000   0.00000  Uiso   1.00
Fe3    Fe    0.40062   0.59938   0.83334   0.00000  Uiso   1.00
Fe4    Fe    0.80125   0.40062   0.16667   0.00000  Uiso   1.00
Fe5    Fe    0.40062   0.80125   0.50000   0.00000  Uiso   1.00
Fe6    Fe    0.59938   0.40062   0.83334   0.00000  Uiso   1.00
C1     C     0.35004   0.59102   0.04626   0.00000  Uiso   1.00
C2     C     0.28842   0.58658   0.07769   0.00000  Uiso   1.00
C3     C     0.23972   0.59764   0.03054   0.00000  Uiso   1.00
C4     C     0.24098   0.59102   0.95375   0.00000  Uiso   1.00
C5     C     0.29815   0.58657   0.92232   0.00000  Uiso   1.00
C6     C     0.35792   0.59764   0.96947   0.00000  Uiso   1.00
H1     H     0.39159   0.59193   0.08032   0.00000  Uiso   1.00
O1     O     0.27330   0.57805   0.14635   0.00000  Uiso   1.00
O2     O     0.19720   0.61250   0.06384   0.00000  Uiso   1.00
H2     H     0.20033   0.59193   0.91969   0.00000  Uiso   1.00
O3     O     0.30474   0.57805   0.85366   0.00000  Uiso   1.00
O4     O     0.41529   0.61250   0.93617   0.00000  Uiso   1.00
C7     C     0.64996   0.24098   0.28708   0.00000  Uiso   1.00
C8     C     0.71158   0.29815   0.25565   0.00000  Uiso   1.00
C9     C     0.76028   0.35792   0.30280   0.00000  Uiso   1.00
C10    C     0.75902   0.35004   0.37960   0.00000  Uiso   1.00
C11    C     0.70185   0.28842   0.41102   0.00000  Uiso   1.00
C12    C     0.64208   0.23972   0.36387   0.00000  Uiso   1.00
H3     H     0.60841   0.20034   0.25302   0.00000  Uiso   1.00
O5     O     0.72670   0.30474   0.18699   0.00000  Uiso   1.00
O6     O     0.80279   0.41529   0.26951   0.00000  Uiso   1.00
H4     H     0.79966   0.39159   0.41365   0.00000  Uiso   1.00
O7     O     0.69526   0.27330   0.47968   0.00000  Uiso   1.00
O8     O     0.58471   0.19721   0.39717   0.00000  Uiso   1.00
C13    C     0.40898   0.75902   0.71293   0.00000  Uiso   1.00
C14    C     0.40236   0.76028   0.63613   0.00000  Uiso   1.00
C15    C     0.41342   0.71158   0.58898   0.00000  Uiso   1.00
C16    C     0.40898   0.64996   0.62041   0.00000  Uiso   1.00
C17    C     0.40236   0.64208   0.69720   0.00000  Uiso   1.00
C18    C     0.41343   0.70185   0.74436   0.00000  Uiso   1.00
H5     H     0.40807   0.79967   0.74698   0.00000  Uiso   1.00
O9     O     0.38750   0.80280   0.60284   0.00000  Uiso   1.00
O10    O     0.42195   0.72670   0.52033   0.00000  Uiso   1.00
H6     H     0.40807   0.60841   0.58636   0.00000  Uiso   1.00
O11    O     0.38750   0.58471   0.73050   0.00000  Uiso   1.00
O12    O     0.42195   0.69526   0.81301   0.00000  Uiso   1.00
C19    C     0.75902   0.40898   0.95375   0.00000  Uiso   1.00
C20    C     0.70185   0.41343   0.92232   0.00000  Uiso   1.00
C21    C     0.64208   0.40236   0.96947   0.00000  Uiso   1.00
C22    C     0.64996   0.40898   0.04626   0.00000  Uiso   1.00
C23    C     0.71158   0.41343   0.07769   0.00000  Uiso   1.00
C24    C     0.76028   0.40236   0.03054   0.00000  Uiso   1.00
H7     H     0.79967   0.40807   0.91969   0.00000  Uiso   1.00
O13    O     0.69526   0.42195   0.85366   0.00000  Uiso   1.00
O14    O     0.58471   0.38750   0.93617   0.00000  Uiso   1.00
H8     H     0.60841   0.40807   0.08032   0.00000  Uiso   1.00
O15    O     0.72670   0.42195   0.14635   0.00000  Uiso   1.00
O16    O     0.80280   0.38750   0.06384   0.00000  Uiso   1.00
C25    C     0.35004   0.75902   0.28708   0.00000  Uiso   1.00
C26    C     0.28842   0.70185   0.25565   0.00000  Uiso   1.00
C27    C     0.23972   0.64208   0.30280   0.00000  Uiso   1.00
C28    C     0.24098   0.64996   0.37960   0.00000  Uiso   1.00
C29    C     0.29815   0.71158   0.41102   0.00000  Uiso   1.00
C30    C     0.35791   0.76028   0.36387   0.00000  Uiso   1.00
H9     H     0.39159   0.79966   0.25302   0.00000  Uiso   1.00
O17    O     0.27330   0.69526   0.18699   0.00000  Uiso   1.00
O18    O     0.19721   0.58471   0.26951   0.00000  Uiso   1.00
H10    H     0.20033   0.60841   0.41365   0.00000  Uiso   1.00
O19    O     0.30474   0.72670   0.47968   0.00000  Uiso   1.00
O20    O     0.41529   0.80279   0.39717   0.00000  Uiso   1.00
C31    C     0.59102   0.24098   0.71293   0.00000  Uiso   1.00
C32    C     0.59764   0.23972   0.63613   0.00000  Uiso   1.00
C33    C     0.58657   0.28842   0.58898   0.00000  Uiso   1.00
C34    C     0.59102   0.35004   0.62041   0.00000  Uiso   1.00
C35    C     0.59764   0.35792   0.69720   0.00000  Uiso   1.00
C36    C     0.58658   0.29815   0.74436   0.00000  Uiso   1.00
H11    H     0.59193   0.20033   0.74698   0.00000  Uiso   1.00
O21    O     0.61250   0.19720   0.60284   0.00000  Uiso   1.00
O22    O     0.57805   0.27330   0.52033   0.00000  Uiso   1.00
H12    H     0.59193   0.39159   0.58636   0.00000  Uiso   1.00
O23    O     0.61250   0.41529   0.73050   0.00000  Uiso   1.00
O24    O     0.57805   0.30474   0.81301   0.00000  Uiso   1.00
C37    C     0.00000   0.43263   0.16667   0.00000  Uiso   1.00
C38    C     0.93582   0.43389   0.17037   0.00000  Uiso   1.00
C39    C     0.93581   0.50192   0.16298   0.00000  Uiso   1.00
C40    C     1.00000   0.56737   0.16667   0.00000  Uiso   1.00
C41    C     0.06418   0.56611   0.17037   0.00000  Uiso   1.00
C42    C     0.06419   0.49808   0.16298   0.00000  Uiso   1.00
H13    H     0.00000   0.38238   0.16667   0.00000  Uiso   1.00
O25    O     0.87493   0.37789   0.17817   0.00000  Uiso   1.00
O26    O     0.87493   0.49703   0.15517   0.00000  Uiso   1.00
H14    H     1.00000   0.61762   0.16667   0.00000  Uiso   1.00
O27    O     0.12507   0.62211   0.17817   0.00000  Uiso   1.00
O28    O     0.12507   0.50297   0.15518   0.00000  Uiso   1.00
C43    C     0.43263   0.00000   0.50000   0.00000  Uiso   1.00
C44    C     0.43389   0.93582   0.49631   0.00000  Uiso   1.00
C45    C     0.50192   0.93581   0.50370   0.00000  Uiso   1.00
C46    C     0.56737   1.00000   0.50000   0.00000  Uiso   1.00
C47    C     0.56611   0.06418   0.49631   0.00000  Uiso   1.00
C48    C     0.49808   0.06419   0.50370   0.00000  Uiso   1.00
H15    H     0.38238   0.00000   0.50000   0.00000  Uiso   1.00
O29    O     0.37789   0.87493   0.48851   0.00000  Uiso   1.00
O30    O     0.49703   0.87493   0.51150   0.00000  Uiso   1.00
H16    H     0.61762   1.00000   0.50000   0.00000  Uiso   1.00
O31    O     0.62211   0.12507   0.48851   0.00000  Uiso   1.00
O32    O     0.50297   0.12507   0.51150   0.00000  Uiso   1.00
C49    C     0.56737   0.56737   0.83334   0.00000  Uiso   1.00
C50    C     0.56611   0.50192   0.83703   0.00000  Uiso   1.00
C51    C     0.49808   0.43389   0.82964   0.00000  Uiso   1.00
C52    C     0.43263   0.43263   0.83334   0.00000  Uiso   1.00
C53    C     0.43389   0.49808   0.83703   0.00000  Uiso   1.00
C54    C     0.50192   0.56611   0.82964   0.00000  Uiso   1.00
H17    H     0.61762   0.61762   0.83334   0.00000  Uiso   1.00
O33    O     0.62211   0.49703   0.84483   0.00000  Uiso   1.00
O34    O     0.50297   0.37789   0.82184   0.00000  Uiso   1.00
H18    H     0.38238   0.38238   0.83334   0.00000  Uiso   1.00
O35    O     0.37789   0.50297   0.84483   0.00000  Uiso   1.00
O36    O     0.49703   0.62210   0.82184   0.00000  Uiso   1.00
loop_
_geom_bond_atom_site_label_1
_geom_bond_atom_site_label_2
_geom_bond_distance
_geom_bond_site_symmetry_2
_ccdc_geom_bond_type
Fe1    O1      1.915   .     S
Fe1    O2      1.904   .     S
Fe1    O17     1.915   .     S
Fe1    O18     1.904   .     S
Fe1    O27     1.893   .     S
Fe1    O28     1.893   .     S
Fe2    O7      1.915   .     S
Fe2    O8      1.904   .     S
Fe2    O21     1.904   .     S
Fe2    O22     1.915   .     S
Fe2    O31     1.893   .     S
Fe2    O32     1.893   .     S
Fe3    O3      1.915   .     S
Fe3    O4      1.904   .     S
Fe3    O11     1.904   .     S
Fe3    O12     1.915   .     S
Fe3    O35     1.893   .     S
Fe3    O36     1.893   .     S
Fe4    O5      1.915   .     S
Fe4    O6      1.904   .     S
Fe4    O15     1.915   .     S
Fe4    O16     1.904   .     S
Fe4    O25     1.893   .     S
Fe4    O26     1.893   .     S
Fe5    O9      1.904   .     S
Fe5    O10     1.915   .     S
Fe5    O19     1.915   .     S
Fe5    O20     1.904   .     S
Fe5    O29     1.893   .     S
Fe5    O30     1.893   .     S
Fe6    O13     1.915   .     S
Fe6    O14     1.904   .     S
Fe6    O23     1.904   .     S
Fe6    O24     1.915   .     S
Fe6    O33     1.893   .     S
Fe6    O34     1.893   .     S
C1     C2      1.405   .     A
C1     C6      1.413   1_554 A
C1     H1      1.083   .     S
C2     C3      1.467   .     S
C2     O1      1.287   .     A
C3     C4      1.413   1_554 A
C3     O2      1.267   .     A
C4     C3      1.413   1_556 A
C4     C5      1.405   .     A
C4     H2      1.083   .     S
C5     C6      1.467   .     S
C5     O3      1.287   .     A
C6     C1      1.413   1_556 A
C6     O4      1.267   .     A
C7     C8      1.405   .     A
C7     C12     1.413   .     A
C7     H3      1.083   .     S
C8     C9      1.467   .     S
C8     O5      1.287   .     A
C9     C10     1.413   .     A
C9     O6      1.267   .     A
C10    C11     1.405   .     A
C10    H4      1.083   .     S
C11    C12     1.467   .     S
C11    O7      1.287   .     A
C12    O8      1.267   .     A
C13    C14     1.413   .     A
C13    C18     1.405   .     A
C13    H5      1.083   .     S
C14    C15     1.467   .     S
C14    O9      1.267   .     A
C15    C16     1.405   .     A
C15    O10     1.287   .     A
C16    C17     1.413   .     A
C16    H6      1.083   .     S
C17    C18     1.467   .     S
C17    O11     1.267   .     A
C18    O12     1.287   .     A
C19    C20     1.405   .     A
C19    C24     1.413   1_556 A
C19    H7      1.083   .     S
C20    C21     1.467   .     S
C20    O13     1.287   .     A
C21    C22     1.413   1_556 A
C21    O14     1.267   .     A
C22    C21     1.413   1_554 A
C22    C23     1.405   .     A
C22    H8      1.083   .     S
C23    C24     1.467   .     S
C23    O15     1.287   .     A
C24    C19     1.413   1_554 A
C24    O16     1.267   .     A
C25    C26     1.405   .     A
C25    C30     1.413   .     A
C25    H9      1.083   .     S
C26    C27     1.467   .     S
C26    O17     1.287   .     A
C27    C28     1.413   .     A
C27    O18     1.267   .     A
C28    C29     1.405   .     A
C28    H10     1.083   .     S
C29    C30     1.467   .     S
C29    O19     1.287   .     A
C30    O20     1.267   .     A
C31    C32     1.413   .     A
C31    C36     1.405   .     A
C31    H11     1.083   .     S
C32    C33     1.467   .     S
C32    O21     1.267   .     A
C33    C34     1.405   .     A
C33    O22     1.287   .     A
C34    C35     1.413   .     A
C34    H12     1.083   .     S
C35    C36     1.467   .     S
C35    O23     1.267   .     A
C36    O24     1.287   .     A
C37    C38     1.398   1_455 A
C37    C42     1.398   .     A
C37    H13     1.083   .     S
C38    C37     1.398   1_655 A
C38    C39     1.472   .     S
C38    O25     1.271   .     A
C39    C40     1.398   .     A
C39    O26     1.271   .     A
C40    C41     1.398   1_655 A
C40    H14     1.083   .     S
C41    C40     1.398   1_455 A
C41    C42     1.472   .     S
C41    O27     1.271   .     A
C42    O28     1.271   .     A
C43    C44     1.398   1_545 A
C43    C48     1.398   .     A
C43    H15     1.083   .     S
C44    C43     1.398   1_565 A
C44    C45     1.472   .     S
C44    O29     1.271   .     A
C45    C46     1.398   .     A
C45    O30     1.271   .     A
C46    C47     1.398   1_565 A
C46    H16     1.083   .     S
C47    C46     1.398   1_545 A
C47    C48     1.472   .     S
C47    O31     1.271   .     A
C48    O32     1.271   .     A
C49    C50     1.398   .     A
C49    C54     1.398   .     A
C49    H17     1.083   .     S
C50    C51     1.472   .     S
C50    O33     1.271   .     A
C51    C52     1.398   .     A
C51    O34     1.271   .     A
C52    C53     1.398   .     A
C52    H18     1.083   .     S
C53    C54     1.472   .     S
C53    O35     1.271   .     A
C54    O36     1.271   .     A
