data_etb-D_O-Feoct
_audit_creation_date              2021-11-06
_audit_creation_method            'Materials Studio'
_symmetry_space_group_name_H-M    'P1'
_symmetry_Int_Tables_number       1
_symmetry_cell_setting            triclinic
loop_
_symmetry_equiv_pos_as_xyz
  x,y,z
_cell_length_a                    38.0554
_cell_length_b                    38.0559
_cell_length_c                    18.6580
_cell_angle_alpha                 89.9991
_cell_angle_beta                  90.0009
_cell_angle_gamma                 119.9960
loop_
_atom_site_label
_atom_site_type_symbol
_atom_site_fract_x
_atom_site_fract_y
_atom_site_fract_z
_atom_site_U_iso_or_equiv
_atom_site_adp_type
_atom_site_occupancy
Fe1    Fe    0.45009   0.04403   0.00887   0.00000  Uiso   1.00
Fe2    Fe    0.05015   0.44399   0.00886   0.00000  Uiso   1.00
Fe3    Fe    0.65019   0.64408   0.00889   0.00000  Uiso   1.00
Fe4    Fe    0.65017   0.04405   0.00886   0.00000  Uiso   1.00
Fe5    Fe    0.05015   0.64406   0.00886   0.00000  Uiso   1.00
Fe6    Fe    0.45013   0.44402   0.00888   0.00000  Uiso   1.00
Fe7    Fe    0.11678   0.37736   0.34221   0.00000  Uiso   1.00
Fe8    Fe    0.71681   0.77735   0.34222   0.00000  Uiso   1.00
Fe9    Fe    0.31682   0.97739   0.34220   0.00000  Uiso   1.00
Fe10   Fe    0.31687   0.37739   0.34221   0.00000  Uiso   1.00
Fe11   Fe    0.71681   0.97742   0.34220   0.00000  Uiso   1.00
Fe12   Fe    0.11677   0.77733   0.34218   0.00000  Uiso   1.00
Fe13   Fe    0.78344   0.71071   0.67555   0.00000  Uiso   1.00
Fe14   Fe    0.38346   0.11066   0.67553   0.00000  Uiso   1.00
Fe15   Fe    0.98351   0.31073   0.67553   0.00000  Uiso   1.00
Fe16   Fe    0.98351   0.71070   0.67552   0.00000  Uiso   1.00
Fe17   Fe    0.38349   0.31075   0.67555   0.00000  Uiso   1.00
Fe18   Fe    0.78344   0.11068   0.67554   0.00000  Uiso   1.00
C1     C     0.56245   0.06868   0.07034   0.00000  Uiso   1.00
C2     C     0.52452   0.05627   0.03940   0.00000  Uiso   1.00
C3     C     0.51228   0.03179   0.97834   0.00000  Uiso   1.00
C4     C     0.53781   0.01939   0.94739   0.00000  Uiso   1.00
C5     C     0.57573   0.03180   0.97833   0.00000  Uiso   1.00
C6     C     0.58797   0.05628   0.03939   0.00000  Uiso   1.00
H1     H     0.57194   0.08766   0.11769   0.00000  Uiso   1.00
O1     O     0.49817   0.06781   0.06812   0.00000  Uiso   1.00
O2     O     0.47440   0.02025   0.94962   0.00000  Uiso   1.00
H2     H     0.52832   0.00041   0.90004   0.00000  Uiso   1.00
O3     O     0.60208   0.02027   0.94961   0.00000  Uiso   1.00
O4     O     0.62586   0.06783   0.06811   0.00000  Uiso   1.00
C7     C     0.02550   0.53171   0.07034   0.00000  Uiso   1.00
C8     C     0.03790   0.50618   0.03939   0.00000  Uiso   1.00
C9     C     0.06239   0.51842   0.97833   0.00000  Uiso   1.00
C10    C     0.07479   0.55635   0.94738   0.00000  Uiso   1.00
C11    C     0.06239   0.58187   0.97833   0.00000  Uiso   1.00
C12    C     0.03791   0.56963   0.03939   0.00000  Uiso   1.00
H3     H     0.00652   0.52222   0.11769   0.00000  Uiso   1.00
O5     O     0.02637   0.46830   0.06811   0.00000  Uiso   1.00
O6     O     0.07392   0.49208   0.94961   0.00000  Uiso   1.00
H4     H     0.09377   0.56584   0.90003   0.00000  Uiso   1.00
O7     O     0.07393   0.61975   0.94961   0.00000  Uiso   1.00
O8     O     0.02637   0.59598   0.06811   0.00000  Uiso   1.00
C13    C     0.56248   0.53173   0.07036   0.00000  Uiso   1.00
C14    C     0.52456   0.50621   0.03941   0.00000  Uiso   1.00
C15    C     0.51232   0.51845   0.97835   0.00000  Uiso   1.00
C16    C     0.53784   0.55637   0.94740   0.00000  Uiso   1.00
C17    C     0.57576   0.58189   0.97836   0.00000  Uiso   1.00
C18    C     0.58800   0.56965   0.03941   0.00000  Uiso   1.00
H5     H     0.57198   0.52224   0.11771   0.00000  Uiso   1.00
O9     O     0.49822   0.46833   0.06813   0.00000  Uiso   1.00
O10    O     0.47444   0.49210   0.94963   0.00000  Uiso   1.00
H6     H     0.52834   0.56586   0.90005   0.00000  Uiso   1.00
O11    O     0.60210   0.61978   0.94964   0.00000  Uiso   1.00
O12    O     0.62588   0.59600   0.06814   0.00000  Uiso   1.00
C19    C     0.22914   0.40202   0.40368   0.00000  Uiso   1.00
C20    C     0.19122   0.38961   0.37274   0.00000  Uiso   1.00
C21    C     0.17898   0.36513   0.31168   0.00000  Uiso   1.00
C22    C     0.20451   0.35273   0.28073   0.00000  Uiso   1.00
C23    C     0.24243   0.36514   0.31167   0.00000  Uiso   1.00
C24    C     0.25467   0.38962   0.37273   0.00000  Uiso   1.00
H7     H     0.23863   0.42100   0.45103   0.00000  Uiso   1.00
O13    O     0.16487   0.40114   0.40146   0.00000  Uiso   1.00
O14    O     0.14110   0.35359   0.28296   0.00000  Uiso   1.00
H8     H     0.19502   0.33375   0.23338   0.00000  Uiso   1.00
O15    O     0.26878   0.35361   0.28295   0.00000  Uiso   1.00
O16    O     0.29255   0.40116   0.40145   0.00000  Uiso   1.00
C25    C     0.69216   0.86507   0.40369   0.00000  Uiso   1.00
C26    C     0.70457   0.83954   0.37274   0.00000  Uiso   1.00
C27    C     0.72905   0.85178   0.31168   0.00000  Uiso   1.00
C28    C     0.74145   0.88971   0.28073   0.00000  Uiso   1.00
C29    C     0.72905   0.91523   0.31168   0.00000  Uiso   1.00
C30    C     0.70457   0.90299   0.37274   0.00000  Uiso   1.00
H9     H     0.67318   0.85558   0.45103   0.00000  Uiso   1.00
O17    O     0.69303   0.80166   0.40146   0.00000  Uiso   1.00
O18    O     0.74059   0.82544   0.28296   0.00000  Uiso   1.00
H10    H     0.76044   0.89920   0.23338   0.00000  Uiso   1.00
O19    O     0.74059   0.95311   0.28295   0.00000  Uiso   1.00
O20    O     0.69303   0.92934   0.40146   0.00000  Uiso   1.00
C31    C     0.20447   0.88968   0.28071   0.00000  Uiso   1.00
C32    C     0.17895   0.85176   0.31166   0.00000  Uiso   1.00
C33    C     0.19120   0.83952   0.37272   0.00000  Uiso   1.00
C34    C     0.22912   0.86504   0.40367   0.00000  Uiso   1.00
C35    C     0.25463   0.90296   0.37272   0.00000  Uiso   1.00
C36    C     0.24239   0.91520   0.31167   0.00000  Uiso   1.00
H11    H     0.19498   0.89918   0.23337   0.00000  Uiso   1.00
O21    O     0.14107   0.82542   0.28293   0.00000  Uiso   1.00
O22    O     0.16485   0.80164   0.40144   0.00000  Uiso   1.00
H12    H     0.23861   0.85555   0.45102   0.00000  Uiso   1.00
O23    O     0.29251   0.92931   0.40145   0.00000  Uiso   1.00
O24    O     0.26873   0.95309   0.28295   0.00000  Uiso   1.00
C37    C     0.89580   0.73535   0.73702   0.00000  Uiso   1.00
C38    C     0.85788   0.72295   0.70607   0.00000  Uiso   1.00
C39    C     0.84563   0.69847   0.64501   0.00000  Uiso   1.00
C40    C     0.87115   0.68606   0.61406   0.00000  Uiso   1.00
C41    C     0.90908   0.69846   0.64500   0.00000  Uiso   1.00
C42    C     0.92132   0.72294   0.70606   0.00000  Uiso   1.00
H13    H     0.90529   0.75433   0.78437   0.00000  Uiso   1.00
O25    O     0.83153   0.73449   0.73480   0.00000  Uiso   1.00
O26    O     0.80775   0.68693   0.61630   0.00000  Uiso   1.00
H14    H     0.86166   0.66708   0.56671   0.00000  Uiso   1.00
O27    O     0.93542   0.68692   0.61627   0.00000  Uiso   1.00
O28    O     0.95920   0.73448   0.73478   0.00000  Uiso   1.00
C43    C     0.35883   0.19839   0.73702   0.00000  Uiso   1.00
C44    C     0.37122   0.17286   0.70606   0.00000  Uiso   1.00
C45    C     0.39571   0.18510   0.64500   0.00000  Uiso   1.00
C46    C     0.40812   0.22302   0.61406   0.00000  Uiso   1.00
C47    C     0.39572   0.24855   0.64502   0.00000  Uiso   1.00
C48    C     0.37124   0.23631   0.70608   0.00000  Uiso   1.00
H15    H     0.33985   0.18890   0.78437   0.00000  Uiso   1.00
O29    O     0.35968   0.13497   0.73477   0.00000  Uiso   1.00
O30    O     0.40723   0.15875   0.61627   0.00000  Uiso   1.00
H16    H     0.42710   0.23251   0.56671   0.00000  Uiso   1.00
O31    O     0.40727   0.28644   0.61630   0.00000  Uiso   1.00
O32    O     0.35971   0.26266   0.73481   0.00000  Uiso   1.00
C49    C     0.89580   0.19838   0.73701   0.00000  Uiso   1.00
C50    C     0.85787   0.17287   0.70606   0.00000  Uiso   1.00
C51    C     0.84563   0.18511   0.64501   0.00000  Uiso   1.00
C52    C     0.87115   0.22303   0.61406   0.00000  Uiso   1.00
C53    C     0.90908   0.24855   0.64500   0.00000  Uiso   1.00
C54    C     0.92132   0.23630   0.70606   0.00000  Uiso   1.00
H17    H     0.90529   0.18889   0.78436   0.00000  Uiso   1.00
O33    O     0.83153   0.13499   0.73479   0.00000  Uiso   1.00
O34    O     0.80775   0.15877   0.61629   0.00000  Uiso   1.00
H18    H     0.86166   0.23253   0.56671   0.00000  Uiso   1.00
O35    O     0.93542   0.28643   0.61628   0.00000  Uiso   1.00
O36    O     0.95920   0.26264   0.73478   0.00000  Uiso   1.00
C55    C     0.38345   0.04765   0.17554   0.00000  Uiso   1.00
C56    C     0.40458   0.03962   0.12268   0.00000  Uiso   1.00
C57    C     0.40457   0.00293   0.12267   0.00000  Uiso   1.00
C58    C     0.38346   0.97378   0.17554   0.00000  Uiso   1.00
C59    C     0.36234   0.98182   0.22841   0.00000  Uiso   1.00
C60    C     0.36232   0.01849   0.22839   0.00000  Uiso   1.00
H19    H     0.38345   0.07609   0.17553   0.00000  Uiso   1.00
O37    O     0.42599   0.06759   0.06920   0.00000  Uiso   1.00
O38    O     0.42593   0.99634   0.06912   0.00000  Uiso   1.00
H20    H     0.38346   0.94534   0.17554   0.00000  Uiso   1.00
O39    O     0.34098   0.95387   0.28195   0.00000  Uiso   1.00
O40    O     0.34091   0.02505   0.28187   0.00000  Uiso   1.00
C61    C     0.04653   0.37374   0.17554   0.00000  Uiso   1.00
C62    C     0.05455   0.40290   0.12268   0.00000  Uiso   1.00
C63    C     0.09124   0.43957   0.12266   0.00000  Uiso   1.00
C64    C     0.12039   0.44760   0.17553   0.00000  Uiso   1.00
C65    C     0.11236   0.41846   0.22841   0.00000  Uiso   1.00
C66    C     0.07568   0.38177   0.22839   0.00000  Uiso   1.00
H21    H     0.01808   0.34530   0.17554   0.00000  Uiso   1.00
O41    O     0.02659   0.39634   0.06919   0.00000  Uiso   1.00
O42    O     0.09783   0.46751   0.06911   0.00000  Uiso   1.00
H22    H     0.14884   0.47605   0.17553   0.00000  Uiso   1.00
O43    O     0.14030   0.42505   0.28196   0.00000  Uiso   1.00
O44    O     0.06913   0.35380   0.28188   0.00000  Uiso   1.00
C67    C     0.64657   0.71072   0.17555   0.00000  Uiso   1.00
C68    C     0.65460   0.68960   0.12268   0.00000  Uiso   1.00
C69    C     0.69128   0.68959   0.12270   0.00000  Uiso   1.00
C70    C     0.72043   0.71072   0.17556   0.00000  Uiso   1.00
C71    C     0.71240   0.73184   0.22841   0.00000  Uiso   1.00
C72    C     0.67571   0.73183   0.22842   0.00000  Uiso   1.00
H23    H     0.61812   0.71072   0.17555   0.00000  Uiso   1.00
O45    O     0.62666   0.66824   0.06914   0.00000  Uiso   1.00
O46    O     0.69784   0.66818   0.06922   0.00000  Uiso   1.00
H24    H     0.74888   0.71071   0.17556   0.00000  Uiso   1.00
O47    O     0.74037   0.75325   0.28190   0.00000  Uiso   1.00
O48    O     0.66912   0.75319   0.28196   0.00000  Uiso   1.00
C73    C     0.97990   0.37736   0.84220   0.00000  Uiso   1.00
C74    C     0.98793   0.35625   0.78933   0.00000  Uiso   1.00
C75    C     0.02461   0.35623   0.78934   0.00000  Uiso   1.00
C76    C     0.05376   0.37736   0.84220   0.00000  Uiso   1.00
C77    C     0.04574   0.39849   0.89505   0.00000  Uiso   1.00
C78    C     0.00905   0.39847   0.89507   0.00000  Uiso   1.00
H25    H     0.95145   0.37736   0.84220   0.00000  Uiso   1.00
O49    O     0.95999   0.33489   0.73578   0.00000  Uiso   1.00
O50    O     0.03117   0.33482   0.73586   0.00000  Uiso   1.00
H26    H     0.08221   0.37736   0.84220   0.00000  Uiso   1.00
O51    O     0.07371   0.41989   0.94854   0.00000  Uiso   1.00
O52    O     1.00246   0.41983   0.94861   0.00000  Uiso   1.00
C79    C     0.71682   0.64047   0.84222   0.00000  Uiso   1.00
C80    C     0.69570   0.64851   0.89510   0.00000  Uiso   1.00
C81    C     0.69569   0.68518   0.89508   0.00000  Uiso   1.00
C82    C     0.71681   0.71434   0.84223   0.00000  Uiso   1.00
C83    C     0.73794   0.70631   0.78937   0.00000  Uiso   1.00
C84    C     0.73793   0.66962   0.78935   0.00000  Uiso   1.00
H27    H     0.71682   0.61203   0.84222   0.00000  Uiso   1.00
O53    O     0.67435   0.62056   0.94864   0.00000  Uiso   1.00
O54    O     0.67428   0.69174   0.94857   0.00000  Uiso   1.00
H28    H     0.71681   0.74278   0.84223   0.00000  Uiso   1.00
O55    O     0.75935   0.73428   0.73588   0.00000  Uiso   1.00
O56    O     0.75928   0.66303   0.73580   0.00000  Uiso   1.00
C85    C     0.45370   0.11427   0.84220   0.00000  Uiso   1.00
C86    C     0.42455   0.10624   0.78932   0.00000  Uiso   1.00
C87    C     0.38786   0.06956   0.78934   0.00000  Uiso   1.00
C88    C     0.37983   0.04041   0.84220   0.00000  Uiso   1.00
C89    C     0.40899   0.04844   0.89506   0.00000  Uiso   1.00
C90    C     0.44566   0.08512   0.89507   0.00000  Uiso   1.00
H29    H     0.48214   0.14271   0.84220   0.00000  Uiso   1.00
O57    O     0.43114   0.13418   0.73578   0.00000  Uiso   1.00
O58    O     0.35989   0.06300   0.73586   0.00000  Uiso   1.00
H30    H     0.35139   0.01197   0.84220   0.00000  Uiso   1.00
O59    O     0.40243   0.02047   0.94854   0.00000  Uiso   1.00
O60    O     0.47361   0.09171   0.94862   0.00000  Uiso   1.00
C91    C     0.71680   0.11429   0.84220   0.00000  Uiso   1.00
C92    C     0.69569   0.08515   0.89507   0.00000  Uiso   1.00
C93    C     0.69568   0.04846   0.89505   0.00000  Uiso   1.00
C94    C     0.71681   0.04043   0.84220   0.00000  Uiso   1.00
C95    C     0.73794   0.06959   0.78934   0.00000  Uiso   1.00
C96    C     0.73792   0.10626   0.78933   0.00000  Uiso   1.00
H31    H     0.71680   0.14274   0.84219   0.00000  Uiso   1.00
O61    O     0.67433   0.09173   0.94861   0.00000  Uiso   1.00
O62    O     0.67427   0.02049   0.94853   0.00000  Uiso   1.00
H32    H     0.71681   0.01199   0.84220   0.00000  Uiso   1.00
O63    O     0.75935   0.06302   0.73586   0.00000  Uiso   1.00
O64    O     0.75928   0.13421   0.73579   0.00000  Uiso   1.00
C97    C     0.97990   0.64045   0.84219   0.00000  Uiso   1.00
C98    C     0.98794   0.66960   0.78931   0.00000  Uiso   1.00
C99    C     0.02461   0.70629   0.78933   0.00000  Uiso   1.00
C100   C     0.05376   0.71431   0.84218   0.00000  Uiso   1.00
C101   C     0.04574   0.68516   0.89504   0.00000  Uiso   1.00
C102   C     0.00905   0.64849   0.89506   0.00000  Uiso   1.00
H33    H     0.95146   0.61201   0.84219   0.00000  Uiso   1.00
O65    O     0.95999   0.66301   0.73577   0.00000  Uiso   1.00
O66    O     0.03117   0.73426   0.73584   0.00000  Uiso   1.00
H34    H     0.08221   0.74276   0.84218   0.00000  Uiso   1.00
O67    O     0.07371   0.69172   0.94853   0.00000  Uiso   1.00
O68    O     0.00246   0.62054   0.94860   0.00000  Uiso   1.00
C103   C     0.37988   0.37739   0.84222   0.00000  Uiso   1.00
C104   C     0.38790   0.35626   0.78936   0.00000  Uiso   1.00
C105   C     0.42459   0.35627   0.78935   0.00000  Uiso   1.00
C106   C     0.45374   0.37738   0.84221   0.00000  Uiso   1.00
C107   C     0.44571   0.39850   0.89508   0.00000  Uiso   1.00
C108   C     0.40903   0.39851   0.89507   0.00000  Uiso   1.00
H35    H     0.35143   0.37739   0.84222   0.00000  Uiso   1.00
O69    O     0.35993   0.33485   0.73588   0.00000  Uiso   1.00
O70    O     0.43118   0.33491   0.73581   0.00000  Uiso   1.00
H36    H     0.48219   0.37738   0.84221   0.00000  Uiso   1.00
O71    O     0.47366   0.41985   0.94862   0.00000  Uiso   1.00
O72    O     0.40247   0.41993   0.94855   0.00000  Uiso   1.00
C109   C     0.12039   0.71069   0.17552   0.00000  Uiso   1.00
C110   C     0.09124   0.68958   0.12265   0.00000  Uiso   1.00
C111   C     0.05455   0.68957   0.12266   0.00000  Uiso   1.00
C112   C     0.04652   0.71070   0.17552   0.00000  Uiso   1.00
C113   C     0.07567   0.73182   0.22837   0.00000  Uiso   1.00
C114   C     0.11235   0.73181   0.22839   0.00000  Uiso   1.00
H37    H     0.14883   0.71069   0.17553   0.00000  Uiso   1.00
O73    O     0.09783   0.66822   0.06911   0.00000  Uiso   1.00
O74    O     0.02658   0.66816   0.06918   0.00000  Uiso   1.00
H38    H     0.01807   0.71070   0.17551   0.00000  Uiso   1.00
O75    O     0.06911   0.75323   0.28185   0.00000  Uiso   1.00
O76    O     0.14030   0.75317   0.28193   0.00000  Uiso   1.00
C115   C     0.38350   0.44763   0.17555   0.00000  Uiso   1.00
C116   C     0.40462   0.43960   0.12267   0.00000  Uiso   1.00
C117   C     0.40463   0.40292   0.12269   0.00000  Uiso   1.00
C118   C     0.38350   0.37377   0.17555   0.00000  Uiso   1.00
C119   C     0.36237   0.38179   0.22840   0.00000  Uiso   1.00
C120   C     0.36239   0.41848   0.22842   0.00000  Uiso   1.00
H39    H     0.38350   0.47608   0.17554   0.00000  Uiso   1.00
O77    O     0.42597   0.46754   0.06913   0.00000  Uiso   1.00
O78    O     0.42604   0.39636   0.06921   0.00000  Uiso   1.00
H40    H     0.38351   0.34532   0.17555   0.00000  Uiso   1.00
O79    O     0.34097   0.35382   0.28188   0.00000  Uiso   1.00
O80    O     0.34103   0.42507   0.28196   0.00000  Uiso   1.00
C121   C     0.72042   0.04767   0.17553   0.00000  Uiso   1.00
C122   C     0.71240   0.01852   0.22839   0.00000  Uiso   1.00
C123   C     0.67571   0.98184   0.22841   0.00000  Uiso   1.00
C124   C     0.64656   0.97381   0.17553   0.00000  Uiso   1.00
C125   C     0.65460   0.00296   0.12266   0.00000  Uiso   1.00
C126   C     0.69127   0.03964   0.12267   0.00000  Uiso   1.00
H41    H     0.74887   0.07612   0.17553   0.00000  Uiso   1.00
O81    O     0.74037   0.02508   0.28187   0.00000  Uiso   1.00
O82    O     0.66912   0.95390   0.28195   0.00000  Uiso   1.00
H42    H     0.61812   0.94537   0.17554   0.00000  Uiso   1.00
O83    O     0.62665   0.99636   0.06911   0.00000  Uiso   1.00
O84    O     0.69783   0.06761   0.06919   0.00000  Uiso   1.00
C127   C     0.05015   0.30712   0.50887   0.00000  Uiso   1.00
C128   C     0.02903   0.31515   0.56174   0.00000  Uiso   1.00
C129   C     0.02902   0.35183   0.56172   0.00000  Uiso   1.00
C130   C     0.05014   0.38098   0.50887   0.00000  Uiso   1.00
C131   C     0.07128   0.37296   0.45602   0.00000  Uiso   1.00
C132   C     0.07126   0.33627   0.45600   0.00000  Uiso   1.00
H43    H     0.05015   0.27867   0.50887   0.00000  Uiso   1.00
O85    O     0.00767   0.28721   0.61528   0.00000  Uiso   1.00
O86    O     0.00761   0.35839   0.61521   0.00000  Uiso   1.00
H44    H     0.05014   0.40943   0.50887   0.00000  Uiso   1.00
O87    O     0.09268   0.40093   0.40253   0.00000  Uiso   1.00
O88    O     0.09262   0.32968   0.40246   0.00000  Uiso   1.00
C133   C     0.71319   0.70710   0.50889   0.00000  Uiso   1.00
C134   C     0.72122   0.73626   0.45603   0.00000  Uiso   1.00
C135   C     0.75790   0.77293   0.45602   0.00000  Uiso   1.00
C136   C     0.78705   0.78096   0.50889   0.00000  Uiso   1.00
C137   C     0.77902   0.75181   0.56176   0.00000  Uiso   1.00
C138   C     0.74234   0.71513   0.56174   0.00000  Uiso   1.00
H45    H     0.68474   0.67866   0.50889   0.00000  Uiso   1.00
O89    O     0.69325   0.72970   0.40255   0.00000  Uiso   1.00
O90    O     0.76449   0.80087   0.40247   0.00000  Uiso   1.00
H46    H     0.81550   0.80940   0.50889   0.00000  Uiso   1.00
O91    O     0.80697   0.75840   0.61530   0.00000  Uiso   1.00
O92    O     0.73578   0.68716   0.61523   0.00000  Uiso   1.00
C139   C     0.31321   0.04403   0.50886   0.00000  Uiso   1.00
C140   C     0.34236   0.06514   0.56173   0.00000  Uiso   1.00
C141   C     0.37905   0.06515   0.56172   0.00000  Uiso   1.00
C142   C     0.38707   0.04402   0.50887   0.00000  Uiso   1.00
C143   C     0.35792   0.02290   0.45601   0.00000  Uiso   1.00
C144   C     0.32124   0.02291   0.45599   0.00000  Uiso   1.00
H47    H     0.28476   0.04403   0.50886   0.00000  Uiso   1.00
O93    O     0.33577   0.08650   0.61527   0.00000  Uiso   1.00
O94    O     0.40702   0.08656   0.61520   0.00000  Uiso   1.00
H48    H     0.41552   0.04402   0.50887   0.00000  Uiso   1.00
O95    O     0.36448   0.00149   0.40253   0.00000  Uiso   1.00
O96    O     0.29329   0.00156   0.40245   0.00000  Uiso   1.00
C145   C     0.71319   0.04406   0.50887   0.00000  Uiso   1.00
C146   C     0.74234   0.06518   0.56172   0.00000  Uiso   1.00
C147   C     0.77902   0.06517   0.56174   0.00000  Uiso   1.00
C148   C     0.78705   0.04405   0.50887   0.00000  Uiso   1.00
C149   C     0.75791   0.02294   0.45599   0.00000  Uiso   1.00
C150   C     0.72122   0.02293   0.45601   0.00000  Uiso   1.00
H49    H     0.68474   0.04406   0.50887   0.00000  Uiso   1.00
O97    O     0.73578   0.08659   0.61521   0.00000  Uiso   1.00
O98    O     0.80697   0.08652   0.61528   0.00000  Uiso   1.00
H50    H     0.81550   0.04405   0.50887   0.00000  Uiso   1.00
O99    O     0.76450   0.00158   0.40245   0.00000  Uiso   1.00
O100   O     0.69325   0.00152   0.40253   0.00000  Uiso   1.00
C151   C     0.05014   0.70708   0.50885   0.00000  Uiso   1.00
C152   C     0.02901   0.71510   0.56171   0.00000  Uiso   1.00
C153   C     0.02902   0.75179   0.56172   0.00000  Uiso   1.00
C154   C     0.05013   0.78094   0.50885   0.00000  Uiso   1.00
C155   C     0.07125   0.77291   0.45598   0.00000  Uiso   1.00
C156   C     0.07127   0.73623   0.45599   0.00000  Uiso   1.00
H51    H     0.05014   0.67863   0.50885   0.00000  Uiso   1.00
O101   O     0.00760   0.68714   0.61519   0.00000  Uiso   1.00
O102   O     0.00767   0.75838   0.61527   0.00000  Uiso   1.00
H52    H     0.05013   0.80939   0.50885   0.00000  Uiso   1.00
O103   O     0.09260   0.80085   0.40243   0.00000  Uiso   1.00
O104   O     0.09267   0.72967   0.40251   0.00000  Uiso   1.00
C157   C     0.38712   0.38100   0.50888   0.00000  Uiso   1.00
C158   C     0.37909   0.35185   0.56174   0.00000  Uiso   1.00
C159   C     0.34240   0.31517   0.56176   0.00000  Uiso   1.00
C160   C     0.31325   0.30714   0.50888   0.00000  Uiso   1.00
C161   C     0.32129   0.33629   0.45600   0.00000  Uiso   1.00
C162   C     0.35796   0.37298   0.45602   0.00000  Uiso   1.00
H53    H     0.41556   0.40945   0.50888   0.00000  Uiso   1.00
O105   O     0.40706   0.35841   0.61523   0.00000  Uiso   1.00
O106   O     0.33581   0.28723   0.61530   0.00000  Uiso   1.00
H54    H     0.28481   0.27870   0.50888   0.00000  Uiso   1.00
O107   O     0.29334   0.32970   0.40246   0.00000  Uiso   1.00
O108   O     0.36452   0.40095   0.40254   0.00000  Uiso   1.00
loop_
_geom_bond_atom_site_label_1
_geom_bond_atom_site_label_2
_geom_bond_distance
_geom_bond_site_symmetry_2
_ccdc_geom_bond_type
Fe1    O1      1.932   .     S
Fe1    O2      1.932   1_554 S
Fe1    O37     1.932   .     S
Fe1    O38     1.932   1_545 S
Fe1    O59     1.932   1_554 S
Fe1    O60     1.932   1_554 S
Fe2    O5      1.932   .     S
Fe2    O6      1.932   1_554 S
Fe2    O41     1.932   .     S
Fe2    O42     1.932   .     S
Fe2    O51     1.932   1_554 S
Fe2    O52     1.932   1_454 S
Fe3    O11     1.932   1_554 S
Fe3    O12     1.932   .     S
Fe3    O45     1.932   .     S
Fe3    O46     1.932   .     S
Fe3    O53     1.932   1_554 S
Fe3    O54     1.932   1_554 S
Fe4    O3      1.932   1_554 S
Fe4    O4      1.932   .     S
Fe4    O61     1.932   1_554 S
Fe4    O62     1.932   1_554 S
Fe4    O83     1.932   1_545 S
Fe4    O84     1.932   .     S
Fe5    O7      1.932   1_554 S
Fe5    O8      1.932   .     S
Fe5    O67     1.932   1_554 S
Fe5    O68     1.932   1_554 S
Fe5    O73     1.932   .     S
Fe5    O74     1.932   .     S
Fe6    O9      1.932   .     S
Fe6    O10     1.932   1_554 S
Fe6    O71     1.932   1_554 S
Fe6    O72     1.932   1_554 S
Fe6    O77     1.932   .     S
Fe6    O78     1.932   .     S
Fe7    O13     1.932   .     S
Fe7    O14     1.932   .     S
Fe7    O43     1.932   .     S
Fe7    O44     1.932   .     S
Fe7    O87     1.932   .     S
Fe7    O88     1.932   .     S
Fe8    O17     1.932   .     S
Fe8    O18     1.932   .     S
Fe8    O47     1.932   .     S
Fe8    O48     1.932   .     S
Fe8    O89     1.932   .     S
Fe8    O90     1.932   .     S
Fe9    O23     1.932   .     S
Fe9    O24     1.932   .     S
Fe9    O39     1.932   .     S
Fe9    O40     1.932   1_565 S
Fe9    O95     1.932   1_565 S
Fe9    O96     1.932   1_565 S
Fe10   O15     1.932   .     S
Fe10   O16     1.932   .     S
Fe10   O79     1.932   .     S
Fe10   O80     1.932   .     S
Fe10   O107    1.932   .     S
Fe10   O108    1.932   .     S
Fe11   O19     1.932   .     S
Fe11   O20     1.932   .     S
Fe11   O81     1.932   1_565 S
Fe11   O82     1.932   .     S
Fe11   O99     1.932   1_565 S
Fe11   O100    1.932   1_565 S
Fe12   O21     1.932   .     S
Fe12   O22     1.932   .     S
Fe12   O75     1.932   .     S
Fe12   O76     1.932   .     S
Fe12   O103    1.932   .     S
Fe12   O104    1.932   .     S
Fe13   O25     1.932   .     S
Fe13   O26     1.932   .     S
Fe13   O55     1.932   .     S
Fe13   O56     1.932   .     S
Fe13   O91     1.932   .     S
Fe13   O92     1.932   .     S
Fe14   O29     1.932   .     S
Fe14   O30     1.932   .     S
Fe14   O57     1.932   .     S
Fe14   O58     1.932   .     S
Fe14   O93     1.932   .     S
Fe14   O94     1.932   .     S
Fe15   O35     1.932   .     S
Fe15   O36     1.932   .     S
Fe15   O49     1.932   .     S
Fe15   O50     1.932   1_655 S
Fe15   O85     1.932   1_655 S
Fe15   O86     1.932   1_655 S
Fe16   O27     1.932   .     S
Fe16   O28     1.932   .     S
Fe16   O65     1.932   .     S
Fe16   O66     1.932   1_655 S
Fe16   O101    1.932   1_655 S
Fe16   O102    1.932   1_655 S
Fe17   O31     1.932   .     S
Fe17   O32     1.932   .     S
Fe17   O69     1.932   .     S
Fe17   O70     1.932   .     S
Fe17   O105    1.932   .     S
Fe17   O106    1.932   .     S
Fe18   O33     1.932   .     S
Fe18   O34     1.932   .     S
Fe18   O63     1.932   .     S
Fe18   O64     1.932   .     S
Fe18   O97     1.932   .     S
Fe18   O98     1.932   .     S
C1     C2      1.399   .     A
C1     C6      1.399   .     A
C1     H1      1.083   .     S
C2     C3      1.396   1_554 A
C2     O1      1.388   .     S
C3     C2      1.396   1_556 A
C3     C4      1.399   .     A
C3     O2      1.388   .     S
C4     C5      1.399   .     A
C4     H2      1.083   .     S
C5     C6      1.396   1_556 A
C5     O3      1.388   .     S
C6     C5      1.396   1_554 A
C6     O4      1.388   .     S
O2     Fe1     1.932   1_556 S
O3     Fe4     1.932   1_556 S
C7     C8      1.399   .     A
C7     C12     1.399   .     A
C7     H3      1.083   .     S
C8     C9      1.396   1_554 A
C8     O5      1.388   .     S
C9     C8      1.396   1_556 A
C9     C10     1.399   .     A
C9     O6      1.388   .     S
C10    C11     1.399   .     A
C10    H4      1.083   .     S
C11    C12     1.396   1_556 A
C11    O7      1.388   .     S
C12    C11     1.396   1_554 A
C12    O8      1.388   .     S
O6     Fe2     1.932   1_556 S
O7     Fe5     1.932   1_556 S
C13    C14     1.399   .     A
C13    C18     1.399   .     A
C13    H5      1.083   .     S
C14    C15     1.396   1_554 A
C14    O9      1.388   .     S
C15    C14     1.396   1_556 A
C15    C16     1.399   .     A
C15    O10     1.388   .     S
C16    C17     1.399   .     A
C16    H6      1.083   .     S
C17    C18     1.396   1_556 A
C17    O11     1.388   .     S
C18    C17     1.396   1_554 A
C18    O12     1.388   .     S
O10    Fe6     1.932   1_556 S
O11    Fe3     1.932   1_556 S
C19    C20     1.399   .     A
C19    C24     1.399   .     A
C19    H7      1.083   .     S
C20    C21     1.396   .     A
C20    O13     1.388   .     S
C21    C22     1.399   .     A
C21    O14     1.388   .     S
C22    C23     1.399   .     A
C22    H8      1.083   .     S
C23    C24     1.396   .     A
C23    O15     1.388   .     S
C24    O16     1.388   .     S
C25    C26     1.399   .     A
C25    C30     1.399   .     A
C25    H9      1.083   .     S
C26    C27     1.396   .     A
C26    O17     1.388   .     S
C27    C28     1.399   .     A
C27    O18     1.388   .     S
C28    C29     1.399   .     A
C28    H10     1.083   .     S
C29    C30     1.396   .     A
C29    O19     1.388   .     S
C30    O20     1.388   .     S
C31    C32     1.399   .     A
C31    C36     1.399   .     A
C31    H11     1.083   .     S
C32    C33     1.396   .     A
C32    O21     1.388   .     S
C33    C34     1.399   .     A
C33    O22     1.388   .     S
C34    C35     1.399   .     A
C34    H12     1.083   .     S
C35    C36     1.396   .     A
C35    O23     1.388   .     S
C36    O24     1.388   .     S
C37    C38     1.399   .     A
C37    C42     1.399   .     A
C37    H13     1.083   .     S
C38    C39     1.396   .     A
C38    O25     1.388   .     S
C39    C40     1.399   .     A
C39    O26     1.388   .     S
C40    C41     1.399   .     A
C40    H14     1.083   .     S
C41    C42     1.396   .     A
C41    O27     1.388   .     S
C42    O28     1.388   .     S
C43    C44     1.399   .     A
C43    C48     1.399   .     A
C43    H15     1.083   .     S
C44    C45     1.396   .     A
C44    O29     1.388   .     S
C45    C46     1.399   .     A
C45    O30     1.388   .     S
C46    C47     1.399   .     A
C46    H16     1.083   .     S
C47    C48     1.396   .     A
C47    O31     1.388   .     S
C48    O32     1.388   .     S
C49    C50     1.399   .     A
C49    C54     1.399   .     A
C49    H17     1.083   .     S
C50    C51     1.396   .     A
C50    O33     1.388   .     S
C51    C52     1.399   .     A
C51    O34     1.388   .     S
C52    C53     1.399   .     A
C52    H18     1.083   .     S
C53    C54     1.396   .     A
C53    O35     1.388   .     S
C54    O36     1.388   .     S
C55    C56     1.399   .     A
C55    C60     1.399   .     A
C55    H19     1.083   .     S
C56    C57     1.396   .     A
C56    O37     1.388   .     S
C57    C58     1.399   1_545 A
C57    O38     1.388   1_545 S
C58    C57     1.399   1_565 A
C58    C59     1.399   .     A
C58    H20     1.083   .     S
C59    C60     1.396   1_565 A
C59    O39     1.388   .     S
C60    C59     1.396   1_545 A
C60    O40     1.388   .     S
O38    Fe1     1.932   1_565 S
O38    C57     1.388   1_565 S
O40    Fe9     1.932   1_545 S
C61    C62     1.399   .     A
C61    C66     1.399   .     A
C61    H21     1.083   .     S
C62    C63     1.396   .     A
C62    O41     1.388   .     S
C63    C64     1.399   .     A
C63    O42     1.388   .     S
C64    C65     1.399   .     A
C64    H22     1.083   .     S
C65    C66     1.396   .     A
C65    O43     1.388   .     S
C66    O44     1.388   .     S
C67    C68     1.399   .     A
C67    C72     1.399   .     A
C67    H23     1.083   .     S
C68    C69     1.396   .     A
C68    O45     1.388   .     S
C69    C70     1.399   .     A
C69    O46     1.388   .     S
C70    C71     1.399   .     A
C70    H24     1.083   .     S
C71    C72     1.396   .     A
C71    O47     1.388   .     S
C72    O48     1.388   .     S
C73    C74     1.399   .     A
C73    C78     1.399   1_655 A
C73    H25     1.083   .     S
C74    C75     1.396   1_655 A
C74    O49     1.388   .     S
C75    C74     1.396   1_455 A
C75    C76     1.399   .     A
C75    O50     1.388   .     S
C76    C77     1.399   .     A
C76    H26     1.083   .     S
C77    C78     1.396   .     A
C77    O51     1.388   .     S
C78    C73     1.399   1_455 A
C78    O52     1.388   1_455 S
O50    Fe15    1.932   1_455 S
O51    Fe2     1.932   1_556 S
O52    C78     1.388   1_655 S
O52    Fe2     1.932   1_656 S
C79    C80     1.399   .     A
C79    C84     1.399   .     A
C79    H27     1.083   .     S
C80    C81     1.396   .     A
C80    O53     1.388   .     S
C81    C82     1.399   .     A
C81    O54     1.388   .     S
C82    C83     1.399   .     A
C82    H28     1.083   .     S
C83    C84     1.396   .     A
C83    O55     1.388   .     S
C84    O56     1.388   .     S
O53    Fe3     1.932   1_556 S
O54    Fe3     1.932   1_556 S
C85    C86     1.399   .     A
C85    C90     1.399   .     A
C85    H29     1.083   .     S
C86    C87     1.396   .     A
C86    O57     1.388   .     S
C87    C88     1.399   .     A
C87    O58     1.388   .     S
C88    C89     1.399   .     A
C88    H30     1.083   .     S
C89    C90     1.396   .     A
C89    O59     1.388   .     S
C90    O60     1.388   .     S
O59    Fe1     1.932   1_556 S
O60    Fe1     1.932   1_556 S
C91    C92     1.399   .     A
C91    C96     1.399   .     A
C91    H31     1.083   .     S
C92    C93     1.396   .     A
C92    O61     1.388   .     S
C93    C94     1.399   .     A
C93    O62     1.388   .     S
C94    C95     1.399   .     A
C94    H32     1.083   .     S
C95    C96     1.396   .     A
C95    O63     1.388   .     S
C96    O64     1.388   .     S
O61    Fe4     1.932   1_556 S
O62    Fe4     1.932   1_556 S
C97    C98     1.399   .     A
C97    C102    1.399   1_655 A
C97    H33     1.083   .     S
C98    C99     1.396   1_655 A
C98    O65     1.388   .     S
C99    C98     1.396   1_455 A
C99    C100    1.399   .     A
C99    O66     1.388   .     S
C100   C101    1.399   .     A
C100   H34     1.083   .     S
C101   C102    1.396   .     A
C101   O67     1.388   .     S
C102   C97     1.399   1_455 A
C102   O68     1.388   .     S
O66    Fe16    1.932   1_455 S
O67    Fe5     1.932   1_556 S
O68    Fe5     1.932   1_556 S
C103   C104    1.399   .     A
C103   C108    1.399   .     A
C103   H35     1.083   .     S
C104   C105    1.396   .     A
C104   O69     1.388   .     S
C105   C106    1.399   .     A
C105   O70     1.388   .     S
C106   C107    1.399   .     A
C106   H36     1.083   .     S
C107   C108    1.396   .     A
C107   O71     1.388   .     S
C108   O72     1.388   .     S
O71    Fe6     1.932   1_556 S
O72    Fe6     1.932   1_556 S
C109   C110    1.399   .     A
C109   C114    1.399   .     A
C109   H37     1.083   .     S
C110   C111    1.396   .     A
C110   O73     1.388   .     S
C111   C112    1.399   .     A
C111   O74     1.388   .     S
C112   C113    1.399   .     A
C112   H38     1.083   .     S
C113   C114    1.396   .     A
C113   O75     1.388   .     S
C114   O76     1.388   .     S
C115   C116    1.399   .     A
C115   C120    1.399   .     A
C115   H39     1.083   .     S
C116   C117    1.396   .     A
C116   O77     1.388   .     S
C117   C118    1.399   .     A
C117   O78     1.388   .     S
C118   C119    1.399   .     A
C118   H40     1.083   .     S
C119   C120    1.396   .     A
C119   O79     1.388   .     S
C120   O80     1.388   .     S
C121   C122    1.399   .     A
C121   C126    1.399   .     A
C121   H41     1.083   .     S
C122   C123    1.396   1_545 A
C122   O81     1.388   .     S
C123   C122    1.396   1_565 A
C123   C124    1.399   .     A
C123   O82     1.388   .     S
C124   C125    1.399   1_565 A
C124   H42     1.083   .     S
C125   C124    1.399   1_545 A
C125   C126    1.396   .     A
C125   O83     1.388   1_545 S
C126   O84     1.388   .     S
O81    Fe11    1.932   1_545 S
O83    Fe4     1.932   1_565 S
O83    C125    1.388   1_565 S
C127   C128    1.399   .     A
C127   C132    1.399   .     A
C127   H43     1.083   .     S
C128   C129    1.396   .     A
C128   O85     1.388   .     S
C129   C130    1.399   .     A
C129   O86     1.388   .     S
C130   C131    1.399   .     A
C130   H44     1.083   .     S
C131   C132    1.396   .     A
C131   O87     1.388   .     S
C132   O88     1.388   .     S
O85    Fe15    1.932   1_455 S
O86    Fe15    1.932   1_455 S
C133   C134    1.399   .     A
C133   C138    1.399   .     A
C133   H45     1.083   .     S
C134   C135    1.396   .     A
C134   O89     1.388   .     S
C135   C136    1.399   .     A
C135   O90     1.388   .     S
C136   C137    1.399   .     A
C136   H46     1.083   .     S
C137   C138    1.396   .     A
C137   O91     1.388   .     S
C138   O92     1.388   .     S
C139   C140    1.399   .     A
C139   C144    1.399   .     A
C139   H47     1.083   .     S
C140   C141    1.396   .     A
C140   O93     1.388   .     S
C141   C142    1.399   .     A
C141   O94     1.388   .     S
C142   C143    1.399   .     A
C142   H48     1.083   .     S
C143   C144    1.396   .     A
C143   O95     1.388   .     S
C144   O96     1.388   .     S
O95    Fe9     1.932   1_545 S
O96    Fe9     1.932   1_545 S
C145   C146    1.399   .     A
C145   C150    1.399   .     A
C145   H49     1.083   .     S
C146   C147    1.396   .     A
C146   O97     1.388   .     S
C147   C148    1.399   .     A
C147   O98     1.388   .     S
C148   C149    1.399   .     A
C148   H50     1.083   .     S
C149   C150    1.396   .     A
C149   O99     1.388   .     S
C150   O100    1.388   .     S
O99    Fe11    1.932   1_545 S
O100   Fe11    1.932   1_545 S
C151   C152    1.399   .     A
C151   C156    1.399   .     A
C151   H51     1.083   .     S
C152   C153    1.396   .     A
C152   O101    1.388   .     S
C153   C154    1.399   .     A
C153   O102    1.388   .     S
C154   C155    1.399   .     A
C154   H52     1.083   .     S
C155   C156    1.396   .     A
C155   O103    1.388   .     S
C156   O104    1.388   .     S
O101   Fe16    1.932   1_455 S
O102   Fe16    1.932   1_455 S
C157   C158    1.399   .     A
C157   C162    1.399   .     A
C157   H53     1.083   .     S
C158   C159    1.396   .     A
C158   O105    1.388   .     S
C159   C160    1.399   .     A
C159   O106    1.388   .     S
C160   C161    1.399   .     A
C160   H54     1.083   .     S
C161   C162    1.396   .     A
C161   O107    1.388   .     S
C162   O108    1.388   .     S
