data_etb_Feoct_B_Cupln_DHBQ
_audit_creation_date              2023-08-06
_audit_creation_method            'Materials Studio'
_symmetry_space_group_name_H-M    'P1'
_symmetry_Int_Tables_number       1
_symmetry_cell_setting            triclinic
loop_
_symmetry_equiv_pos_as_xyz
  x,y,z
_cell_length_a                    31.8671
_cell_length_b                    32.1022
_cell_length_c                    12.3384
_cell_angle_alpha                 90.0960
_cell_angle_beta                  90.0803
_cell_angle_gamma                 119.9790
loop_
_atom_site_label
_atom_site_type_symbol
_atom_site_fract_x
_atom_site_fract_y
_atom_site_fract_z
_atom_site_U_iso_or_equiv
_atom_site_adp_type
_atom_site_occupancy
Fe1    Fe    0.36324   0.02486   0.10482   0.00000  Uiso   1.00
Fe2    Fe    0.00959   0.43569   0.10669   0.00000  Uiso   1.00
Fe3    Fe    0.59893   0.67151   0.10622   0.00000  Uiso   1.00
Fe4    Fe    0.59941   0.02429   0.10506   0.00000  Uiso   1.00
Fe5    Fe    0.01029   0.67095   0.10700   0.00000  Uiso   1.00
Fe6    Fe    0.36393   0.43530   0.10574   0.00000  Uiso   1.00
C1     C     0.02961   0.35381   0.44193   0.00000  Uiso   1.00
C2     C     0.07661   0.36646   0.38761   0.00000  Uiso   1.00
C3     C     0.08757   0.38840   0.27975   0.00000  Uiso   1.00
C4     C     0.05326   0.40116   0.22566   0.00000  Uiso   1.00
C5     C     0.00908   0.39215   0.28392   0.00000  Uiso   1.00
C6     C     0.99432   0.36262   0.38362   0.00000  Uiso   1.00
O1     O     0.01665   0.33448   0.53091   0.00000  Uiso   1.00
O2     O     0.10793   0.35891   0.42426   0.00000  Uiso   1.00
O3     O     0.12633   0.39574   0.24279   0.00000  Uiso   1.00
O4     O     0.05967   0.42064   0.13685   0.00000  Uiso   1.00
O5     O     0.98633   0.41020   0.24607   0.00000  Uiso   1.00
O6     O     0.95344   0.34443   0.42148   0.00000  Uiso   1.00
C7     C     0.64256   0.71464   0.28387   0.00000  Uiso   1.00
C8     C     0.67222   0.72948   0.38386   0.00000  Uiso   1.00
C9     C     0.68130   0.77343   0.44211   0.00000  Uiso   1.00
C10    C     0.66851   0.80745   0.38769   0.00000  Uiso   1.00
C11    C     0.64613   0.79624   0.27981   0.00000  Uiso   1.00
C12    C     0.63322   0.74935   0.22567   0.00000  Uiso   1.00
O7     O     0.62469   0.67408   0.24569   0.00000  Uiso   1.00
O8     O     0.69025   0.70685   0.42206   0.00000  Uiso   1.00
O9     O     0.70085   0.77986   0.53122   0.00000  Uiso   1.00
O10    O     0.67622   0.84616   0.42429   0.00000  Uiso   1.00
O11    O     0.63867   0.82736   0.24284   0.00000  Uiso   1.00
O12    O     0.61349   0.73611   0.13676   0.00000  Uiso   1.00
C13    C     0.30545   0.04030   0.38226   0.00000  Uiso   1.00
C14    C     0.32024   0.02548   0.28240   0.00000  Uiso   1.00
C15    C     0.28511   0.98151   0.22410   0.00000  Uiso   1.00
C16    C     0.23825   0.94732   0.27861   0.00000  Uiso   1.00
C17    C     0.22720   0.95844   0.38649   0.00000  Uiso   1.00
C18    C     0.26131   0.00545   0.44047   0.00000  Uiso   1.00
O13    O     0.32822   0.08092   0.42029   0.00000  Uiso   1.00
O14    O     0.36104   0.04810   0.24435   0.00000  Uiso   1.00
O15    O     0.29810   0.97514   0.13495   0.00000  Uiso   1.00
O16    O     0.20718   0.90848   0.24217   0.00000  Uiso   1.00
O17    O     0.18861   0.92711   0.42364   0.00000  Uiso   1.00
O18    O     0.25483   0.01867   0.52923   0.00000  Uiso   1.00
C19    C     0.30619   0.36221   0.38274   0.00000  Uiso   1.00
C20    C     0.32095   0.39174   0.28304   0.00000  Uiso   1.00
C21    C     0.28566   0.40055   0.22474   0.00000  Uiso   1.00
C22    C     0.23865   0.38788   0.27905   0.00000  Uiso   1.00
C23    C     0.22769   0.36594   0.38691   0.00000  Uiso   1.00
C24    C     0.26201   0.35319   0.44100   0.00000  Uiso   1.00
O19    O     0.32895   0.34416   0.42060   0.00000  Uiso   1.00
O20    O     0.36183   0.40993   0.24518   0.00000  Uiso   1.00
O21    O     0.29861   0.41987   0.13576   0.00000  Uiso   1.00
O22    O     0.20733   0.39543   0.24240   0.00000  Uiso   1.00
O23    O     0.18893   0.35860   0.42387   0.00000  Uiso   1.00
O24    O     0.25560   0.33372   0.52981   0.00000  Uiso   1.00
C25    C     0.68205   0.00500   0.44099   0.00000  Uiso   1.00
C26    C     0.66914   0.95810   0.38685   0.00000  Uiso   1.00
C27    C     0.64676   0.94690   0.27897   0.00000  Uiso   1.00
C28    C     0.63397   0.98092   0.22455   0.00000  Uiso   1.00
C29    C     0.64306   0.02487   0.28280   0.00000  Uiso   1.00
C30    C     0.67272   0.03971   0.38278   0.00000  Uiso   1.00
O25    O     0.70179   0.01824   0.52989   0.00000  Uiso   1.00
O26    O     0.67659   0.92698   0.42383   0.00000  Uiso   1.00
O27    O     0.63903   0.90818   0.24238   0.00000  Uiso   1.00
O28    O     0.61442   0.97449   0.13543   0.00000  Uiso   1.00
O29    O     0.62503   0.04750   0.24460   0.00000  Uiso   1.00
O30    O     0.69058   0.08027   0.42097   0.00000  Uiso   1.00
C31    C     0.05398   0.74891   0.22622   0.00000  Uiso   1.00
C32    C     0.08809   0.79593   0.28020   0.00000  Uiso   1.00
C33    C     0.07703   0.80705   0.38806   0.00000  Uiso   1.00
C34    C     0.03017   0.77285   0.44257   0.00000  Uiso   1.00
C35    C     0.99504   0.72888   0.38428   0.00000  Uiso   1.00
C36    C     0.00983   0.71407   0.28442   0.00000  Uiso   1.00
O31    O     0.06046   0.73570   0.13746   0.00000  Uiso   1.00
O32    O     0.12668   0.82725   0.24306   0.00000  Uiso   1.00
O33    O     0.10809   0.84590   0.42450   0.00000  Uiso   1.00
O34    O     0.01718   0.77923   0.53172   0.00000  Uiso   1.00
O35    O     0.95424   0.70626   0.42233   0.00000  Uiso   1.00
O36    O     0.98707   0.67344   0.24639   0.00000  Uiso   1.00
Fe7    Fe    0.71586   0.73006   0.56160   0.00000  Uiso   1.00
Fe8    Fe    0.30500   0.08342   0.55968   0.00000  Uiso   1.00
Fe9    Fe    0.95134   0.31906   0.56093   0.00000  Uiso   1.00
Fe10   Fe    0.95205   0.72950   0.56186   0.00000  Uiso   1.00
Fe11   Fe    0.30568   0.31867   0.55998   0.00000  Uiso   1.00
Fe12   Fe    0.71635   0.08284   0.56043   0.00000  Uiso   1.00
C37    C     0.50921   0.07979   0.08489   0.00000  Uiso   1.00
C38    C     0.45836   0.05545   0.10362   0.00000  Uiso   1.00
C39    C     0.43406   1.00624   0.14701   0.00000  Uiso   1.00
C40    C     0.46032   0.98296   0.17081   0.00000  Uiso   1.00
C41    C     0.50998   1.00603   0.14701   0.00000  Uiso   1.00
C42    C     0.53535   0.05523   0.10360   0.00000  Uiso   1.00
H1     H     0.52744   0.11591   0.05237   0.00000  Uiso   1.00
O37    O     0.43040   0.07279   0.08323   0.00000  Uiso   1.00
O38    O     0.38831   0.98619   0.15890   0.00000  Uiso   1.00
H2     H     0.44197   0.94663   0.20223   0.00000  Uiso   1.00
O39    O     0.53539   0.98579   0.15892   0.00000  Uiso   1.00
O40    O     0.58071   0.07237   0.08321   0.00000  Uiso   1.00
C43    C     0.05192   0.57408   0.17319   0.00000  Uiso   1.00
C44    C     0.02842   0.52470   0.14922   0.00000  Uiso   1.00
C45    C    -0.02119   0.49965   0.10548   0.00000  Uiso   1.00
C46    C     0.95430   0.52583   0.08660   0.00000  Uiso   1.00
C47    C    -0.02092   0.57636   0.10548   0.00000  Uiso   1.00
C48    C     0.02868   0.60036   0.14924   0.00000  Uiso   1.00
H3     H     0.08854   0.59217   0.20487   0.00000  Uiso   1.00
O41    O     0.04860   0.49928   0.16125   0.00000  Uiso   1.00
O42    O     0.96130   0.45453   0.08498   0.00000  Uiso   1.00
H4     H     0.91789   0.50784   0.05383   0.00000  Uiso   1.00
O43    O     0.96181   0.60427   0.08497   0.00000  Uiso   1.00
O44    O     0.04909   0.64584   0.16130   0.00000  Uiso   1.00
C49    C     0.50974   0.52627   0.08583   0.00000  Uiso   1.00
C50    C     0.45891   0.49976   0.10466   0.00000  Uiso   1.00
C51    C     0.43422   0.52451   0.14822   0.00000  Uiso   1.00
C52    C     0.46010   0.57389   0.17210   0.00000  Uiso   1.00
C53    C     0.50975   0.60049   0.14822   0.00000  Uiso   1.00
C54    C     0.53549   0.57680   0.10462   0.00000  Uiso   1.00
H5     H     0.52827   0.50852   0.05318   0.00000  Uiso   1.00
O45    O     0.43127   0.45459   0.08422   0.00000  Uiso   1.00
O46    O     0.38850   0.49881   0.16018   0.00000  Uiso   1.00
H6     H     0.44146   0.59174   0.20367   0.00000  Uiso   1.00
O47    O     0.53482   0.64598   0.16021   0.00000  Uiso   1.00
O48    O     0.58078   0.60498   0.08414   0.00000  Uiso   1.00
Cu1    Cu    0.15762   0.37716   0.33333   0.00000  Uiso   1.00
Cu2    Cu    0.65762   0.87717   0.33334   0.00000  Uiso   1.00
Cu3    Cu    0.15764   0.87718   0.33334   0.00000  Uiso   1.00
C55    C     0.85496   0.77140   0.49586   0.00000  Uiso   1.00
C56    C     0.80530   0.74833   0.51965   0.00000  Uiso   1.00
C57    C     0.77993   0.69912   0.56306   0.00000  Uiso   1.00
C58    C     0.80607   0.67456   0.58178   0.00000  Uiso   1.00
C59    C     0.85692   0.69891   0.56306   0.00000  Uiso   1.00
C60    C     0.88122   0.74812   0.51967   0.00000  Uiso   1.00
H7     H     0.87330   0.80772   0.46444   0.00000  Uiso   1.00
O49    O     0.77989   0.76856   0.50774   0.00000  Uiso   1.00
O50    O     0.73457   0.68198   0.58345   0.00000  Uiso   1.00
H8     H     0.78784   0.63845   0.61430   0.00000  Uiso   1.00
O51    O     0.88488   0.68157   0.58345   0.00000  Uiso   1.00
O52    O     0.92697   0.76817   0.50778   0.00000  Uiso   1.00
C61    C     0.36098   0.22854   0.58007   0.00000  Uiso   1.00
C62    C     0.33620   0.17800   0.56119   0.00000  Uiso   1.00
C63    C     0.28659   0.15400   0.51744   0.00000  Uiso   1.00
C64    C     0.26336   0.18028   0.49348   0.00000  Uiso   1.00
C65    C     0.28685   0.22966   0.51745   0.00000  Uiso   1.00
C66    C     0.33647   0.25471   0.56118   0.00000  Uiso   1.00
H9     H     0.39739   0.24653   0.61284   0.00000  Uiso   1.00
O53    O     0.35347   0.15010   0.58170   0.00000  Uiso   1.00
O54    O     0.26620   0.10852   0.50538   0.00000  Uiso   1.00
H10    H     0.22673   0.16219   0.46180   0.00000  Uiso   1.00
O55    O     0.26668   0.25508   0.50542   0.00000  Uiso   1.00
O56    O     0.35397   0.29983   0.58168   0.00000  Uiso   1.00
C67    C     0.85517   0.18046   0.49455   0.00000  Uiso   1.00
C68    C     0.80553   0.15387   0.51844   0.00000  Uiso   1.00
C69    C     0.77979   0.17755   0.56204   0.00000  Uiso   1.00
C70    C     0.80553   0.22808   0.58083   0.00000  Uiso   1.00
C71    C     0.85636   0.25459   0.56200   0.00000  Uiso   1.00
C72    C     0.88105   0.22985   0.51844   0.00000  Uiso   1.00
H11    H     0.87381   0.16261   0.46299   0.00000  Uiso   1.00
O57    O     0.78045   0.10837   0.50644   0.00000  Uiso   1.00
O58    O     0.73450   0.14937   0.58252   0.00000  Uiso   1.00
H12    H     0.78700   0.24583   0.61348   0.00000  Uiso   1.00
O59    O     0.88399   0.29976   0.58244   0.00000  Uiso   1.00
O60    O     0.92677   0.25555   0.50648   0.00000  Uiso   1.00
C73    C     0.00742   0.42441   0.78339   0.00000  Uiso   1.00
C74    C     0.98303   0.38209   0.72108   0.00000  Uiso   1.00
C75    C     0.96498   0.33470   0.77113   0.00000  Uiso   1.00
C76    C     0.96041   0.33040   0.88422   0.00000  Uiso   1.00
C77    C     0.97825   0.37268   0.94649   0.00000  Uiso   1.00
C78    C     0.00764   0.42013   0.89650   0.00000  Uiso   1.00
H13    H     0.02464   0.45942   0.74524   0.00000  Uiso   1.00
O61    O     0.97577   0.38178   0.61985   0.00000  Uiso   1.00
O62    O     0.95210   0.29921   0.70615   0.00000  Uiso   1.00
H14    H     0.94260   0.29538   0.92237   0.00000  Uiso   1.00
O63    O     0.97123   0.37293   0.04765   0.00000  Uiso   1.00
O64    O     0.03022   0.45566   0.96154   0.00000  Uiso   1.00
C79    C     0.70477   0.72819   0.88465   0.00000  Uiso   1.00
C80    C     0.66226   0.70370   0.94663   0.00000  Uiso   1.00
C81    C     0.61438   0.68521   0.89629   0.00000  Uiso   1.00
C82    C     0.60995   0.68079   0.78317   0.00000  Uiso   1.00
C83    C     0.65250   0.69891   0.72114   0.00000  Uiso   1.00
C84    C     0.70032   0.72826   0.77155   0.00000  Uiso   1.00
H15    H     0.74009   0.74555   0.92302   0.00000  Uiso   1.00
O65    O     0.66218   0.69669   0.04782   0.00000  Uiso   1.00
O66    O     0.57860   0.67185   0.96103   0.00000  Uiso   1.00
H16    H     0.57464   0.66285   0.74478   0.00000  Uiso   1.00
O67    O     0.65266   0.69209   0.61987   0.00000  Uiso   1.00
O68    O     0.73605   0.75071   0.70687   0.00000  Uiso   1.00
C85    C     0.30687   0.07418   0.88285   0.00000  Uiso   1.00
C86    C     0.30681   0.06977   0.76971   0.00000  Uiso   1.00
C87    C     0.33621   0.05146   0.71957   0.00000  Uiso   1.00
C88    C     0.35411   0.02697   0.78166   0.00000  Uiso   1.00
C89    C     0.34952   0.02678   0.89474   0.00000  Uiso   1.00
C90    C     0.33126   0.05611   0.94502   0.00000  Uiso   1.00
H17    H     0.28957   0.09206   0.92112   0.00000  Uiso   1.00
O69    O     0.28434   0.08299   0.70481   0.00000  Uiso   1.00
O70    O     0.34324   0.05861   0.61844   0.00000  Uiso   1.00
H18    H     0.37200   0.00968   0.74339   0.00000  Uiso   1.00
O71    O     0.36258   0.00424   0.95953   0.00000  Uiso   1.00
O72    O     0.33836   0.06294   0.04631   0.00000  Uiso   1.00
C91    C     0.70532   0.07356   0.88349   0.00000  Uiso   1.00
C92    C     0.66278   0.05544   0.94551   0.00000  Uiso   1.00
C93    C     0.61495   0.02609   0.89510   0.00000  Uiso   1.00
C94    C     0.61050   0.02616   0.78201   0.00000  Uiso   1.00
C95    C     0.65301   0.05064   0.72003   0.00000  Uiso   1.00
C96    C     0.70090   0.06914   0.77036   0.00000  Uiso   1.00
H19    H     0.74064   0.09150   0.92187   0.00000  Uiso   1.00
O73    O     0.66261   0.06226   0.04679   0.00000  Uiso   1.00
O74    O     0.57923   0.00364   0.95979   0.00000  Uiso   1.00
H20    H     0.57518   0.00880   0.74363   0.00000  Uiso   1.00
O75    O     0.65310   0.05766   0.61884   0.00000  Uiso   1.00
O76    O     0.73668   0.08250   0.70562   0.00000  Uiso   1.00
C97    C     0.00841   0.68018   0.78383   0.00000  Uiso   1.00
C98    C     0.98403   0.69826   0.72166   0.00000  Uiso   1.00
C99    C     0.96576   0.72759   0.77194   0.00000  Uiso   1.00
C100   C     0.96117   0.72739   0.88502   0.00000  Uiso   1.00
C101   C     0.97907   0.70291   0.94711   0.00000  Uiso   1.00
C102   C     0.00848   0.68460   0.89697   0.00000  Uiso   1.00
H21    H     0.02571   0.66231   0.74556   0.00000  Uiso   1.00
O77    O     0.97693   0.69143   0.62037   0.00000  Uiso   1.00
O78    O     0.95270   0.75012   0.70715   0.00000  Uiso   1.00
H22    H     0.94328   0.74469   0.92329   0.00000  Uiso   1.00
O79    O     0.97205   0.69576   0.04824   0.00000  Uiso   1.00
O80    O     0.03095   0.67138   0.96187   0.00000  Uiso   1.00
C103   C     0.30784   0.32995   0.88328   0.00000  Uiso   1.00
C104   C     0.30763   0.33423   0.77016   0.00000  Uiso   1.00
C105   C     0.33702   0.38168   0.72017   0.00000  Uiso   1.00
C106   C     0.35486   0.42396   0.78244   0.00000  Uiso   1.00
C107   C     0.35028   0.41966   0.89553   0.00000  Uiso   1.00
C108   C     0.33224   0.37226   0.94558   0.00000  Uiso   1.00
H23    H     0.29062   0.29494   0.92142   0.00000  Uiso   1.00
O81    O     0.28506   0.29870   0.70513   0.00000  Uiso   1.00
O82    O     0.34404   0.38143   0.61902   0.00000  Uiso   1.00
H24    H     0.37267   0.45898   0.74430   0.00000  Uiso   1.00
O83    O     0.36317   0.45515   0.96051   0.00000  Uiso   1.00
O84    O     0.33949   0.37258   0.04681   0.00000  Uiso   1.00
loop_
_geom_bond_atom_site_label_1
_geom_bond_atom_site_label_2
_geom_bond_distance
_geom_bond_site_symmetry_2
_ccdc_geom_bond_type
Fe1    O14     1.890   .     S
Fe1    O15     1.920   1_545 S
Fe1    O37     1.932   .     S
Fe1    O38     1.902   1_545 S
Fe1    O71     1.906   1_554 S
Fe1    O72     1.901   .     S
Fe2    O4      1.921   .     S
Fe2    O5      1.892   1_455 S
Fe2    O41     1.903   .     S
Fe2    O42     1.933   1_455 S
Fe2    O63     1.901   1_455 S
Fe2    O64     1.907   1_554 S
Fe3    O7      1.889   .     S
Fe3    O12     1.922   .     S
Fe3    O47     1.903   .     S
Fe3    O48     1.932   .     S
Fe3    O65     1.901   .     S
Fe3    O66     1.906   1_554 S
Fe4    O28     1.921   1_545 S
Fe4    O29     1.889   .     S
Fe4    O39     1.902   1_545 S
Fe4    O40     1.932   .     S
Fe4    O73     1.901   .     S
Fe4    O74     1.906   1_554 S
Fe5    O31     1.922   .     S
Fe5    O36     1.891   1_455 S
Fe5    O43     1.932   1_455 S
Fe5    O44     1.903   .     S
Fe5    O79     1.901   1_455 S
Fe5    O80     1.906   1_554 S
Fe6    O20     1.892   .     S
Fe6    O21     1.920   .     S
Fe6    O45     1.932   .     S
Fe6    O46     1.903   .     S
Fe6    O83     1.907   1_554 S
Fe6    O84     1.901   .     S
C1     C2      1.501   .     S
C1     C6      1.476   1_455 S
C1     O1      1.228   .     D
C2     C3      1.466   .     S
C2     O2      1.225   .     D
C3     C4      1.502   .     S
C3     O3      1.225   .     D
C4     C5      1.476   .     S
C4     O4      1.228   .     D
C5     C6      1.481   1_455 S
C5     O5      1.224   1_455 D
C6     C1      1.476   1_655 S
C6     C5      1.481   1_655 S
C6     O6      1.224   .     D
O1     Fe9     1.920   1_455 S
O2     Cu1     1.786   .     S
O3     Cu1     1.787   .     S
O5     C5      1.224   1_655 D
O5     Fe2     1.892   1_655 S
O6     Fe9     1.892   .     S
C7     C8      1.479   .     S
C7     C12     1.476   .     S
C7     O7      1.224   .     D
C8     C9      1.476   .     S
C8     O8      1.224   .     D
C9     C10     1.502   .     S
C9     O9      1.228   .     D
C10    C11     1.466   .     S
C10    O10     1.225   .     D
C11    C12     1.503   .     S
C11    O11     1.225   .     D
C12    O12     1.228   .     D
O8     Fe7     1.889   .     S
O9     Fe7     1.921   .     S
O10    Cu2     1.787   .     S
O11    Cu2     1.787   .     S
C13    C14     1.480   .     S
C13    C18     1.476   .     S
C13    O13     1.224   .     D
C14    C15     1.476   1_545 S
C14    O14     1.224   .     D
C15    C14     1.476   1_565 S
C15    C16     1.501   .     S
C15    O15     1.228   .     D
C16    C17     1.466   .     S
C16    O16     1.225   .     D
C17    C18     1.503   1_565 S
C17    O17     1.225   .     D
C18    C17     1.503   1_545 S
C18    O18     1.228   .     D
O13    Fe8     1.891   .     S
O15    Fe1     1.920   1_565 S
O16    Cu3     1.786   .     S
O17    Cu3     1.787   .     S
O18    Fe8     1.922   .     S
C19    C20     1.481   .     S
C19    C24     1.476   .     S
C19    O19     1.224   .     D
C20    C21     1.476   .     S
C20    O20     1.224   .     D
C21    C22     1.501   .     S
C21    O21     1.228   .     D
C22    C23     1.466   .     S
C22    O22     1.225   .     D
C23    C24     1.502   .     S
C23    O23     1.225   .     D
C24    O24     1.228   .     D
O19    Fe11    1.892   .     S
O22    Cu1     1.786   .     S
O23    Cu1     1.786   .     S
O24    Fe11    1.921   .     S
C25    C26     1.503   1_545 S
C25    C30     1.476   .     S
C25    O25     1.228   .     D
C26    C25     1.503   1_565 S
C26    C27     1.466   .     S
C26    O26     1.225   .     D
C27    C28     1.502   .     S
C27    O27     1.225   .     D
C28    C29     1.476   1_565 S
C28    O28     1.228   .     D
C29    C28     1.476   1_545 S
C29    C30     1.479   .     S
C29    O29     1.224   .     D
C30    O30     1.224   .     D
O25    Fe12    1.922   .     S
O26    Cu2     1.787   .     S
O27    Cu2     1.787   .     S
O28    Fe4     1.921   1_565 S
O30    Fe12    1.889   .     S
C31    C32     1.503   .     S
C31    C36     1.476   .     S
C31    O31     1.228   .     D
C32    C33     1.466   .     S
C32    O32     1.225   .     D
C33    C34     1.501   .     S
C33    O33     1.225   .     D
C34    C35     1.476   1_455 S
C34    O34     1.228   .     D
C35    C34     1.476   1_655 S
C35    C36     1.480   1_655 S
C35    O35     1.224   .     D
C36    C35     1.480   1_455 S
C36    O36     1.224   1_455 D
O32    Cu3     1.787   .     S
O33    Cu3     1.786   .     S
O34    Fe10    1.920   1_455 S
O35    Fe10    1.890   .     S
O36    C36     1.224   1_655 D
O36    Fe5     1.891   1_655 S
Fe7    O49     1.902   .     S
Fe7    O50     1.932   .     S
Fe7    O67     1.901   .     S
Fe7    O68     1.906   .     S
Fe8    O53     1.932   .     S
Fe8    O54     1.903   .     S
Fe8    O69     1.906   .     S
Fe8    O70     1.901   .     S
Fe9    O1      1.920   1_655 S
Fe9    O59     1.932   .     S
Fe9    O60     1.903   .     S
Fe9    O61     1.901   .     S
Fe9    O62     1.907   .     S
Fe10   O34     1.920   1_655 S
Fe10   O51     1.932   .     S
Fe10   O52     1.902   .     S
Fe10   O77     1.901   .     S
Fe10   O78     1.906   .     S
Fe11   O55     1.903   .     S
Fe11   O56     1.933   .     S
Fe11   O81     1.907   .     S
Fe11   O82     1.901   .     S
Fe12   O57     1.903   .     S
Fe12   O58     1.932   .     S
Fe12   O75     1.901   .     S
Fe12   O76     1.906   .     S
C37    C38     1.423   .     A
C37    C42     1.423   .     A
C37    H1      1.082   .     S
C38    C39     1.471   1_545 S
C38    O37     1.289   .     A
C39    C38     1.471   1_565 S
C39    C40     1.404   .     A
C39    O38     1.274   .     A
C40    C41     1.404   .     A
C40    H2      1.083   .     S
C41    C42     1.471   1_565 S
C41    O39     1.275   .     A
C42    C41     1.471   1_545 S
C42    O40     1.289   .     A
O38    Fe1     1.902   1_565 S
O39    Fe4     1.902   1_565 S
C43    C44     1.404   .     A
C43    C48     1.404   .     A
C43    H3      1.083   .     S
C44    C45     1.471   .     S
C44    O41     1.275   .     A
C45    C46     1.424   1_455 A
C45    O42     1.290   1_455 A
C46    C45     1.424   1_655 A
C46    C47     1.424   1_655 A
C46    H4      1.082   .     S
C47    C46     1.424   1_455 A
C47    C48     1.471   .     S
C47    O43     1.290   1_455 A
C48    O44     1.275   .     A
O42    Fe2     1.933   1_655 S
O42    C45     1.290   1_655 A
O43    Fe5     1.932   1_655 S
O43    C47     1.290   1_655 A
C49    C50     1.423   .     A
C49    C54     1.424   .     A
C49    H5      1.082   .     S
C50    C51     1.471   .     S
C50    O45     1.290   .     A
C51    C52     1.404   .     A
C51    O46     1.275   .     A
C52    C53     1.404   .     A
C52    H6      1.083   .     S
C53    C54     1.471   .     S
C53    O47     1.275   .     A
C54    O48     1.289   .     A
C55    C56     1.404   .     A
C55    C60     1.404   .     A
C55    H7      1.083   .     S
C56    C57     1.471   .     S
C56    O49     1.275   .     A
C57    C58     1.423   .     A
C57    O50     1.289   .     A
C58    C59     1.423   .     A
C58    H8      1.082   .     S
C59    C60     1.471   .     S
C59    O51     1.289   .     A
C60    O52     1.274   .     A
C61    C62     1.424   .     A
C61    C66     1.424   .     A
C61    H9      1.082   .     S
C62    C63     1.471   .     S
C62    O53     1.290   .     A
C63    C64     1.404   .     A
C63    O54     1.275   .     A
C64    C65     1.404   .     A
C64    H10     1.083   .     S
C65    C66     1.471   .     S
C65    O55     1.275   .     A
C66    O56     1.290   .     A
C67    C68     1.404   .     A
C67    C72     1.404   .     A
C67    H11     1.083   .     S
C68    C69     1.471   .     S
C68    O57     1.275   .     A
C69    C70     1.424   .     A
C69    O58     1.289   .     A
C70    C71     1.423   .     A
C70    H12     1.082   .     S
C71    C72     1.471   .     S
C71    O59     1.290   .     A
C72    O60     1.275   .     A
C73    C74     1.407   1_455 A
C73    C78     1.403   .     A
C73    H13     1.083   .     S
C74    C73     1.407   1_655 A
C74    C75     1.469   .     S
C74    O61     1.269   .     A
C75    C76     1.403   .     A
C75    O62     1.280   .     A
C76    C77     1.407   .     A
C76    H14     1.083   .     S
C77    C78     1.469   1_655 S
C77    O63     1.269   1_556 A
C78    C77     1.469   1_455 S
C78    O64     1.280   .     A
O63    Fe2     1.901   1_655 S
O63    C77     1.269   1_554 A
O64    Fe2     1.907   1_556 S
C79    C80     1.407   .     A
C79    C84     1.403   .     A
C79    H15     1.083   .     S
C80    C81     1.469   .     S
C80    O65     1.269   1_556 A
C81    C82     1.403   .     A
C81    O66     1.279   .     A
C82    C83     1.407   .     A
C82    H16     1.083   .     S
C83    C84     1.469   .     S
C83    O67     1.269   .     A
C84    O68     1.279   .     A
O65    C80     1.269   1_554 A
O66    Fe3     1.906   1_556 S
C85    C86     1.403   .     A
C85    C90     1.407   .     A
C85    H17     1.083   .     S
C86    C87     1.469   .     S
C86    O69     1.280   .     A
C87    C88     1.407   .     A
C87    O70     1.269   .     A
C88    C89     1.403   .     A
C88    H18     1.083   .     S
C89    C90     1.469   .     S
C89    O71     1.280   .     A
C90    O72     1.269   1_556 A
O71    Fe1     1.906   1_556 S
O72    C90     1.269   1_554 A
C91    C92     1.407   .     A
C91    C96     1.403   .     A
C91    H19     1.083   .     S
C92    C93     1.469   .     S
C92    O73     1.269   1_556 A
C93    C94     1.403   .     A
C93    O74     1.280   .     A
C94    C95     1.407   .     A
C94    H20     1.083   .     S
C95    C96     1.469   .     S
C95    O75     1.269   .     A
C96    O76     1.279   .     A
O73    C92     1.269   1_554 A
O74    Fe4     1.906   1_556 S
C97    C98     1.407   1_455 A
C97    C102    1.403   .     A
C97    H21     1.083   .     S
C98    C97     1.407   1_655 A
C98    C99     1.469   .     S
C98    O77     1.269   .     A
C99    C100    1.403   .     A
C99    O78     1.280   .     A
C100   C101    1.407   .     A
C100   H22     1.083   .     S
C101   C102    1.469   1_655 S
C101   O79     1.269   1_556 A
C102   C101    1.469   1_455 S
C102   O80     1.280   .     A
O79    Fe5     1.901   1_655 S
O79    C101    1.269   1_554 A
O80    Fe5     1.906   1_556 S
C103   C104    1.403   .     A
C103   C108    1.407   .     A
C103   H23     1.083   .     S
C104   C105    1.469   .     S
C104   O81     1.280   .     A
C105   C106    1.407   .     A
C105   O82     1.269   .     A
C106   C107    1.403   .     A
C106   H24     1.083   .     S
C107   C108    1.469   .     S
C107   O83     1.280   .     A
C108   O84     1.269   1_556 A
O83    Fe6     1.907   1_556 S
O84    C108    1.269   1_554 A
