data_etb_Feoct_TP_Cupln_DHBQ
_audit_creation_date              2023-08-06
_audit_creation_method            'Materials Studio'
_symmetry_space_group_name_H-M    'P1'
_symmetry_Int_Tables_number       1
_symmetry_cell_setting            triclinic
loop_
_symmetry_equiv_pos_as_xyz
  x,y,z
_cell_length_a                    16.1611
_cell_length_b                    40.1244
_cell_length_c                    40.4450
_cell_angle_alpha                 119.5532
_cell_angle_beta                  90.2490
_cell_angle_gamma                 89.9372
loop_
_atom_site_label
_atom_site_type_symbol
_atom_site_fract_x
_atom_site_fract_y
_atom_site_fract_z
_atom_site_U_iso_or_equiv
_atom_site_adp_type
_atom_site_occupancy
Fe1    Fe   -0.04808   0.46532  -0.01872   0.00000  Uiso   1.00
Fe2    Fe   -0.05001  -0.35202  -0.37158   0.00000  Uiso   1.00
Fe3    Fe   -0.05010   0.11236  -0.55575   0.00000  Uiso   1.00
Fe4    Fe   -0.04774   0.65049  -0.01826   0.00000  Uiso   1.00
Fe5    Fe   -0.05014  -0.53428  -0.55529   0.00000  Uiso   1.00
Fe6    Fe   -0.04896   0.11443  -0.37125   0.00000  Uiso   1.00
C1     C    -0.39669  -0.27086  -0.30644   0.00000  Uiso   1.00
C2     C    -0.44443  -0.23688  -0.30272   0.00000  Uiso   1.00
C3     C    -0.39937  -0.20720  -0.30839   0.00000  Uiso   1.00
C4     C    -0.31069  -0.21461  -0.32316   0.00000  Uiso   1.00
C5     C    -0.26576  -0.25003  -0.32890   0.00000  Uiso   1.00
C6     C    -0.31349  -0.28015  -0.32497   0.00000  Uiso   1.00
C7     C    -0.27363  -0.18952  -0.33203   0.00000  Uiso   1.00
C8     C    -0.31479  -0.15389  -0.32397   0.00000  Uiso   1.00
C9     C    -0.39485  -0.14553  -0.30724   0.00000  Uiso   1.00
C10    C    -0.43625  -0.17319  -0.29936   0.00000  Uiso   1.00
C11    C    -0.42908  -0.29279  -0.29271   0.00000  Uiso   1.00
C12    C    -0.51521   0.71156  -0.28080   0.00000  Uiso   1.00
C13    C    -0.56577  -0.25936  -0.28225   0.00000  Uiso   1.00
C14    C    -0.52663  -0.23348  -0.29361   0.00000  Uiso   1.00
C15    C    -0.28113  -0.31575  -0.33853   0.00000  Uiso   1.00
C16    C    -0.19503  -0.32340  -0.35049   0.00000  Uiso   1.00
C17    C    -0.14455  -0.29305  -0.34934   0.00000  Uiso   1.00
C18    C    -0.18366  -0.25589  -0.33818   0.00000  Uiso   1.00
H1     H    -0.21357  -0.19427  -0.34503   0.00000  Uiso   1.00
O1     O    -0.28569  -0.12949  -0.32999   0.00000  Uiso   1.00
O2     O    -0.42372  -0.11502  -0.30103   0.00000  Uiso   1.00
H2     H    -0.49627  -0.16496  -0.28632   0.00000  Uiso   1.00
H3     H    -0.39403   0.68505  -0.29121   0.00000  Uiso   1.00
O3     O    -0.54816   0.69104  -0.27049   0.00000  Uiso   1.00
O4     O    -0.63846  -0.25762  -0.27312   0.00000  Uiso   1.00
H4     H    -0.56583  -0.21163  -0.29337   0.00000  Uiso   1.00
H5     H    -0.31617   0.66070  -0.33986   0.00000  Uiso   1.00
O5     O    -0.16205  -0.35416  -0.36059   0.00000  Uiso   1.00
O6     O    -0.07189  -0.30050  -0.35851   0.00000  Uiso   1.00
H6     H    -0.14442  -0.23443  -0.33862   0.00000  Uiso   1.00
C19    C    -0.26636   0.05314  -0.65713   0.00000  Uiso   1.00
C20    C    -0.31400   0.08710  -0.62764   0.00000  Uiso   1.00
C21    C    -0.39730   0.09649  -0.63716   0.00000  Uiso   1.00
C22    C    -0.44502   0.06662  -0.67088   0.00000  Uiso   1.00
C23    C    -0.39987   0.03151  -0.70008   0.00000  Uiso   1.00
C24    C    -0.31122   0.02389  -0.69238   0.00000  Uiso   1.00
C25    C    -0.52725   0.07246  -0.67451   0.00000  Uiso   1.00
C26    C    -0.56657   0.10944  -0.64891   0.00000  Uiso   1.00
C27    C    -0.51612   0.13958  -0.61994   0.00000  Uiso   1.00
C28    C    -0.42982   0.13198  -0.61560   0.00000  Uiso   1.00
C29    C    -0.18438   0.04945  -0.65089   0.00000  Uiso   1.00
C30    C    -0.14511   0.07536  -0.61410   0.00000  Uiso   1.00
C31    C    -0.19536   0.10467  -0.58446   0.00000  Uiso   1.00
C32    C    -0.28153   0.10893  -0.59233   0.00000  Uiso   1.00
C33    C    -0.27405  -0.00983  -0.71713   0.00000  Uiso   1.00
C34    C    -0.31509  -0.03690  -0.75260   0.00000  Uiso   1.00
C35    C    -0.39515  -0.02829  -0.76119   0.00000  Uiso   1.00
C36    C    -0.43666   0.00698  -0.73392   0.00000  Uiso   1.00
H7     H    -0.56640   0.05112  -0.69625   0.00000  Uiso   1.00
O7     O    -0.63938   0.11691  -0.65073   0.00000  Uiso   1.00
O8     O    -0.54926   0.17014  -0.59947   0.00000  Uiso   1.00
H8     H    -0.39482   0.15548  -0.59369   0.00000  Uiso   1.00
H9     H    -0.14520   0.02753  -0.67181   0.00000  Uiso   1.00
O9     O    -0.07242   0.07360  -0.60645   0.00000  Uiso   1.00
O10    O    -0.16216   0.12548  -0.55409   0.00000  Uiso   1.00
H10    H    -0.31649   0.13100  -0.56915   0.00000  Uiso   1.00
H11    H    -0.21396  -0.01824  -0.71224   0.00000  Uiso   1.00
O11    O    -0.28587  -0.06707  -0.77669   0.00000  Uiso   1.00
O12    O    -0.42389  -0.05217  -0.79154   0.00000  Uiso   1.00
H12    H    -0.49665   0.01202  -0.74231   0.00000  Uiso   1.00
C37    C    -0.44304  -0.60502  -0.97407   0.00000  Uiso   1.00
C38    C    -0.39543   0.39947  -0.00363   0.00000  Uiso   1.00
C39    C    -0.31215  -0.58172  -0.99417   0.00000  Uiso   1.00
C40    C    -0.26437  -0.57806  -0.96044   0.00000  Uiso   1.00
C41    C    -0.30951  -0.58391  -0.93114   0.00000  Uiso   1.00
C42    C    -0.39817  -0.59908  -0.93876   0.00000  Uiso   1.00
C43    C    -0.18210  -0.56879  -0.95690   0.00000  Uiso   1.00
C44    C    -0.14282  -0.55731  -0.98251   0.00000  Uiso   1.00
C45    C    -0.19335   0.44413  -0.01143   0.00000  Uiso   1.00
C46    C    -0.27966   0.43226  -0.01577   0.00000  Uiso   1.00
C47    C    -0.52500  -0.61488  -0.98029   0.00000  Uiso   1.00
C48    C    -0.56423   0.37428  -0.01713   0.00000  Uiso   1.00
C49    C    -0.51397   0.37393  -0.04684   0.00000  Uiso   1.00
C50    C    -0.42787   0.38607  -0.03897   0.00000  Uiso   1.00
C51    C    -0.43534  -0.60798  -0.91388   0.00000  Uiso   1.00
C52    C    -0.39426  -0.59964  -0.87836   0.00000  Uiso   1.00
C53    C    -0.31418  -0.58258  -0.86987   0.00000  Uiso   1.00
C54    C    -0.27271  -0.57464  -0.89726   0.00000  Uiso   1.00
H13    H    -0.14292  -0.56858  -0.93518   0.00000  Uiso   1.00
O13    O    -0.07002  -0.54812  -0.98071   0.00000  Uiso   1.00
O14    O    -0.16026   0.45438  -0.03185   0.00000  Uiso   1.00
H14    H    -0.31471   0.43394  -0.03770   0.00000  Uiso   1.00
H15    H    -0.56417  -0.61590  -0.95933   0.00000  Uiso   1.00
O15    O    -0.63688   0.36488  -0.02479   0.00000  Uiso   1.00
O16    O    -0.54712   0.36432  -0.07728   0.00000  Uiso   1.00
H16    H    -0.39292   0.38502  -0.06217   0.00000  Uiso   1.00
H17    H    -0.49547  -0.62114  -0.91867   0.00000  Uiso   1.00
O17    O    -0.42344  -0.60567  -0.85417   0.00000  Uiso   1.00
O18    O    -0.28540  -0.57615  -0.83948   0.00000  Uiso   1.00
H18    H    -0.21272  -0.56130  -0.88893   0.00000  Uiso   1.00
C55    C    -0.44340   0.06864  -0.30195   0.00000  Uiso   1.00
C56    C    -0.39568   0.09875  -0.30589   0.00000  Uiso   1.00
C57    C    -0.31248   0.08946  -0.32442   0.00000  Uiso   1.00
C58    C    -0.26474   0.05549  -0.32814   0.00000  Uiso   1.00
C59    C    -0.30979   0.02582  -0.32246   0.00000  Uiso   1.00
C60    C    -0.39847   0.03323  -0.30768   0.00000  Uiso   1.00
C61    C    -0.18255   0.05209  -0.33726   0.00000  Uiso   1.00
C62    C    -0.14341   0.07797  -0.34861   0.00000  Uiso   1.00
C63    C    -0.19397   0.10705  -0.35005   0.00000  Uiso   1.00
C64    C    -0.28010   0.11140  -0.33815   0.00000  Uiso   1.00
C65    C    -0.52552   0.07449  -0.29269   0.00000  Uiso   1.00
C66    C    -0.56463   0.11165  -0.28153   0.00000  Uiso   1.00
C67    C    -0.51415   0.14200  -0.28038   0.00000  Uiso   1.00
C68    C    -0.42804   0.13435  -0.29233   0.00000  Uiso   1.00
C69    C    -0.43552   0.00815  -0.29879   0.00000  Uiso   1.00
C70    C    -0.39435  -0.02748  -0.30685   0.00000  Uiso   1.00
C71    C    -0.31429  -0.03585  -0.32358   0.00000  Uiso   1.00
C72    C    -0.27291  -0.00820  -0.33147   0.00000  Uiso   1.00
H19    H    -0.14334   0.03024  -0.33750   0.00000  Uiso   1.00
O19    O    -0.07072   0.07623  -0.35774   0.00000  Uiso   1.00
O20    O    -0.16103   0.12758  -0.36036   0.00000  Uiso   1.00
H20    H    -0.31515   0.13356  -0.33965   0.00000  Uiso   1.00
H21    H    -0.56475   0.05303  -0.29224   0.00000  Uiso   1.00
O21    O    -0.63729   0.11910  -0.27236   0.00000  Uiso   1.00
O22    O    -0.54713   0.17276  -0.27028   0.00000  Uiso   1.00
H22    H    -0.39300   0.15790  -0.29099   0.00000  Uiso   1.00
H23    H    -0.49557   0.01290  -0.28579   0.00000  Uiso   1.00
O23    O    -0.42345  -0.05187  -0.30082   0.00000  Uiso   1.00
O24    O    -0.28541  -0.06635  -0.32978   0.00000  Uiso   1.00
H24    H    -0.21289  -0.01643  -0.34452   0.00000  Uiso   1.00
C73    C    -0.39513   0.73152  -0.00324   0.00000  Uiso   1.00
C74    C    -0.44278  -0.23453  -0.97375   0.00000  Uiso   1.00
C75    C    -0.39792  -0.20528  -0.93849   0.00000  Uiso   1.00
C76    C    -0.30928  -0.21290  -0.93079   0.00000  Uiso   1.00
C77    C    -0.26412  -0.24800  -0.95999   0.00000  Uiso   1.00
C78    C    -0.31183  -0.27787  -0.99373   0.00000  Uiso   1.00
C79    C    -0.27250  -0.18838  -0.89695   0.00000  Uiso   1.00
C80    C    -0.31402  -0.15310  -0.86968   0.00000  Uiso   1.00
C81    C    -0.39407  -0.14450  -0.87827   0.00000  Uiso   1.00
C82    C    -0.43510  -0.17156  -0.91375   0.00000  Uiso   1.00
C83    C    -0.42761   0.70969  -0.03855   0.00000  Uiso   1.00
C84    C    -0.51378   0.71394  -0.04642   0.00000  Uiso   1.00
C85    C    -0.56404   0.74324  -0.01677   0.00000  Uiso   1.00
C86    C    -0.52477  -0.23085  -0.97998   0.00000  Uiso   1.00
C87    C    -0.27931   0.68664  -0.01529   0.00000  Uiso   1.00
C88    C    -0.19302   0.67903  -0.01093   0.00000  Uiso   1.00
C89    C    -0.14257  -0.29083  -0.98196   0.00000  Uiso   1.00
C90    C    -0.18189  -0.25385  -0.95636   0.00000  Uiso   1.00
H25    H    -0.21251  -0.19341  -0.88856   0.00000  Uiso   1.00
O25    O    -0.28528  -0.12923  -0.83932   0.00000  Uiso   1.00
O26    O    -0.42331  -0.11433  -0.85418   0.00000  Uiso   1.00
H26    H    -0.49519  -0.16315  -0.91864   0.00000  Uiso   1.00
H27    H    -0.39263   0.68763  -0.06174   0.00000  Uiso   1.00
O27    O    -0.54699   0.69313  -0.07678   0.00000  Uiso   1.00
O28    O    -0.63673   0.74500  -0.02442   0.00000  Uiso   1.00
H28    H    -0.56396  -0.20893  -0.95905   0.00000  Uiso   1.00
H29    H    -0.31431   0.66315  -0.03721   0.00000  Uiso   1.00
O29    O    -0.15989   0.64847  -0.03140   0.00000  Uiso   1.00
O30    O    -0.06977  -0.29830  -0.98014   0.00000  Uiso   1.00
H30    H    -0.14275  -0.23251  -0.93461   0.00000  Uiso   1.00
C91    C    -0.31388  -0.58083  -0.62722   0.00000  Uiso   1.00
C92    C    -0.26627  -0.57635  -0.65679   0.00000  Uiso   1.00
C93    C    -0.31113  -0.58228  -0.69210   0.00000  Uiso   1.00
C94    C    -0.39979  -0.59746  -0.69972   0.00000  Uiso   1.00
C95    C    -0.44492  -0.60331  -0.67042   0.00000  Uiso   1.00
C96    C    -0.39715  -0.59963  -0.63668   0.00000  Uiso   1.00
C97    C    -0.43659  -0.60674  -0.73360   0.00000  Uiso   1.00
C98    C    -0.39512  -0.59878  -0.76098   0.00000  Uiso   1.00
C99    C    -0.31506  -0.58171  -0.75249   0.00000  Uiso   1.00
C100   C    -0.27398  -0.57337  -0.71697   0.00000  Uiso   1.00
C101   C    -0.28143  -0.56743  -0.59188   0.00000  Uiso   1.00
C102   C    -0.19532  -0.55530  -0.58402   0.00000  Uiso   1.00
C103   C    -0.14506  -0.55566  -0.61374   0.00000  Uiso   1.00
C104   C    -0.18430  -0.56649  -0.65057   0.00000  Uiso   1.00
C105   C    -0.42964  -0.61362  -0.61508   0.00000  Uiso   1.00
C106   C    -0.51593   0.37450  -0.61942   0.00000  Uiso   1.00
C107   C    -0.56646  -0.62407  -0.64835   0.00000  Uiso   1.00
C108   C    -0.52719  -0.61259  -0.67396   0.00000  Uiso   1.00
H31    H    -0.49656  -0.62009  -0.74193   0.00000  Uiso   1.00
O31    O    -0.42391  -0.60522  -0.79138   0.00000  Uiso   1.00
O32    O    -0.28587  -0.57568  -0.77668   0.00000  Uiso   1.00
H32    H    -0.21388  -0.56018  -0.71216   0.00000  Uiso   1.00
H33    H    -0.31638   0.43363  -0.56868   0.00000  Uiso   1.00
O33    O    -0.16215  -0.54570  -0.55359   0.00000  Uiso   1.00
O34    O    -0.07240  -0.54627  -0.60609   0.00000  Uiso   1.00
H34    H    -0.14513  -0.56550  -0.67155   0.00000  Uiso   1.00
H35    H    -0.39460   0.38472  -0.59313   0.00000  Uiso   1.00
O35    O    -0.54902   0.36424  -0.59900   0.00000  Uiso   1.00
O36    O    -0.63927  -0.63327  -0.65015   0.00000  Uiso   1.00
H36    H    -0.56637  -0.61281  -0.69569   0.00000  Uiso   1.00
Fe7    Fe   -0.66142   0.16811  -0.61261   0.00000  Uiso   1.00
Fe8    Fe   -0.65913   0.35288  -0.07559   0.00000  Uiso   1.00
Fe9    Fe   -0.66022   0.70418  -0.25961   0.00000  Uiso   1.00
Fe10   Fe   -0.66119   0.35329  -0.61214   0.00000  Uiso   1.00
Fe11   Fe   -0.65917   0.17062  -0.25929   0.00000  Uiso   1.00
Fe12   Fe   -0.65906   0.70624  -0.07511   0.00000  Uiso   1.00
C109   C    -0.03230   0.53681  -0.06106   0.00000  Uiso   1.00
C110   C    -0.04318   0.51650  -0.04131   0.00000  Uiso   1.00
C111   C    -0.06733  -0.46315  -1.00097   0.00000  Uiso   1.00
C112   C    -0.08011  -0.42379  -0.98158   0.00000  Uiso   1.00
C113   C    -0.06713  -0.40358  -1.00081   0.00000  Uiso   1.00
C114   C    -0.04297   0.57677  -0.04114   0.00000  Uiso   1.00
H37    H    -0.01422   0.52214  -0.09065   0.00000  Uiso   1.00
O37    O    -0.03228   0.48043  -0.05609   0.00000  Uiso   1.00
O38    O    -0.07460  -0.48324  -0.98495   0.00000  Uiso   1.00
H38    H    -0.09758  -0.40908  -0.95189   0.00000  Uiso   1.00
O39    O    -0.07425  -0.36754  -0.98464   0.00000  Uiso   1.00
O40    O    -0.03188   0.59826  -0.05576   0.00000  Uiso   1.00
C115   C    -0.08316  -0.42411  -0.48154   0.00000  Uiso   1.00
C116   C    -0.07003  -0.40482  -0.44249   0.00000  Uiso   1.00
C117   C    -0.04543  -0.42537  -0.42224   0.00000  Uiso   1.00
C118   C    -0.03442   0.53467  -0.44239   0.00000  Uiso   1.00
C119   C    -0.04531  -0.48469  -0.48208   0.00000  Uiso   1.00
C120   C    -0.06995  -0.46341  -0.50158   0.00000  Uiso   1.00
H39    H    -0.10096  -0.40869  -0.49616   0.00000  Uiso   1.00
O41    O    -0.07729  -0.36886  -0.42263   0.00000  Uiso   1.00
O42    O    -0.03424   0.59537  -0.38644   0.00000  Uiso   1.00
H40    H    -0.01599   0.51931  -0.42781   0.00000  Uiso   1.00
O43    O    -0.03400   0.47937  -0.50342   0.00000  Uiso   1.00
O44    O    -0.07720  -0.48262  -0.53734   0.00000  Uiso   1.00
C121   C    -0.03390   0.15646  -0.44278   0.00000  Uiso   1.00
C122   C    -0.04467   0.13680  -0.42236   0.00000  Uiso   1.00
C123   C    -0.06914   0.09612  -0.44232   0.00000  Uiso   1.00
C124   C    -0.08242   0.07632  -0.48136   0.00000  Uiso   1.00
C125   C    -0.06948   0.09543  -0.50167   0.00000  Uiso   1.00
C126   C    -0.04494   0.13609  -0.48245   0.00000  Uiso   1.00
H41    H    -0.01556   0.18630  -0.42842   0.00000  Uiso   1.00
O45    O    -0.03337   0.15193  -0.38654   0.00000  Uiso   1.00
O46    O    -0.07619   0.08018  -0.42222   0.00000  Uiso   1.00
H42    H    -0.10014   0.04638  -0.49576   0.00000  Uiso   1.00
O47    O    -0.07691   0.07885  -0.53744   0.00000  Uiso   1.00
O48    O    -0.03386   0.15055  -0.50401   0.00000  Uiso   1.00
Cu1    Cu   -0.35456  -0.09068  -0.31539   0.00000  Uiso   1.00
Cu2    Cu   -0.35459  -0.09070  -0.81543   0.00000  Uiso   1.00
Cu3    Cu   -0.35466  -0.59068  -0.81542   0.00000  Uiso   1.00
C127   C    -0.62910   0.24240  -0.64928   0.00000  Uiso   1.00
C128   C    -0.64206   0.22219  -0.63006   0.00000  Uiso   1.00
C129   C    -0.66623   0.24183  -0.58973   0.00000  Uiso   1.00
C130   C    -0.67692   0.28179  -0.56981   0.00000  Uiso   1.00
C131   C    -0.66606   0.30210  -0.58956   0.00000  Uiso   1.00
C132   C    -0.64191   0.28176  -0.62989   0.00000  Uiso   1.00
H43    H    -0.61162   0.22769  -0.67897   0.00000  Uiso   1.00
O49    O    -0.63492   0.18615  -0.64623   0.00000  Uiso   1.00
O50    O    -0.67729   0.22035  -0.57510   0.00000  Uiso   1.00
H44    H    -0.69500   0.29646  -0.54021   0.00000  Uiso   1.00
O51    O    -0.67697   0.33817  -0.57477   0.00000  Uiso   1.00
O52    O    -0.63465   0.30184  -0.64591   0.00000  Uiso   1.00
C133   C    -0.67480   0.28394  -0.18849   0.00000  Uiso   1.00
C134   C    -0.66393   0.30330  -0.14880   0.00000  Uiso   1.00
C135   C    -0.63928   0.28202  -0.12930   0.00000  Uiso   1.00
C136   C    -0.62604   0.24272  -0.14934   0.00000  Uiso   1.00
C137   C    -0.63916   0.22343  -0.18838   0.00000  Uiso   1.00
C138   C    -0.66377   0.24397  -0.20863   0.00000  Uiso   1.00
H45    H    -0.69323   0.29929  -0.20307   0.00000  Uiso   1.00
O53    O    -0.67525   0.33923  -0.12746   0.00000  Uiso   1.00
O54    O    -0.63204   0.30123  -0.09354   0.00000  Uiso   1.00
H46    H    -0.60823   0.22731  -0.13471   0.00000  Uiso   1.00
O55    O    -0.63189   0.18747  -0.20824   0.00000  Uiso   1.00
O56    O    -0.67494   0.22323  -0.24444   0.00000  Uiso   1.00
C139   C    -0.62678   0.74230  -0.14950   0.00000  Uiso   1.00
C140   C    -0.63970   0.72318  -0.12919   0.00000  Uiso   1.00
C141   C    -0.66423   0.68252  -0.14841   0.00000  Uiso   1.00
C142   C    -0.67528   0.66215  -0.18808   0.00000  Uiso   1.00
C143   C    -0.66452   0.68181  -0.20850   0.00000  Uiso   1.00
C144   C    -0.64005   0.72249  -0.18854   0.00000  Uiso   1.00
H47    H    -0.60907   0.77224  -0.13509   0.00000  Uiso   1.00
O57    O    -0.63226   0.73976  -0.09342   0.00000  Uiso   1.00
O58    O    -0.67529   0.66805  -0.12685   0.00000  Uiso   1.00
H48    H    -0.69361   0.63231  -0.20244   0.00000  Uiso   1.00
O59    O    -0.67582   0.66668  -0.24432   0.00000  Uiso   1.00
O60    O    -0.63301   0.73844  -0.20864   0.00000  Uiso   1.00
C145   C    -0.80772  -0.34186  -0.35051   0.00000  Uiso   1.00
C146   C    -0.76843   0.67354  -0.31505   0.00000  Uiso   1.00
C147   C    -0.81607   0.69599  -0.28005   0.00000  Uiso   1.00
C148   C    -0.90249   0.69313  -0.28069   0.00000  Uiso   1.00
C149   C    -0.94176   0.67294  -0.31612   0.00000  Uiso   1.00
C150   C    -0.89416  -0.33971  -0.35118   0.00000  Uiso   1.00
H49    H    -0.77237  -0.35490  -0.37658   0.00000  Uiso   1.00
O61    O    -0.69126   0.67062  -0.31082   0.00000  Uiso   1.00
O62    O    -0.77412   0.71637  -0.25008   0.00000  Uiso   1.00
H50    H    -0.93784   0.70622  -0.25462   0.00000  Uiso   1.00
O63    O    -0.01889  -0.33424  -0.32030   0.00000  Uiso   1.00
O64    O    -0.93616  -0.34946  -0.38121   0.00000  Uiso   1.00
C151   C    -0.90337   0.15765  -0.60211   0.00000  Uiso   1.00
C152   C    -0.94237   0.14231  -0.58175   0.00000  Uiso   1.00
C153   C    -0.89451   0.11999  -0.56845   0.00000  Uiso   1.00
C154   C    -0.80805   0.12248  -0.56652   0.00000  Uiso   1.00
C155   C    -0.76899   0.14249  -0.58228   0.00000  Uiso   1.00
C156   C    -0.81698   0.15552  -0.60473   0.00000  Uiso   1.00
H51    H    -0.93892   0.17078  -0.61540   0.00000  Uiso   1.00
O65    O    -0.01948   0.14529  -0.57481   0.00000  Uiso   1.00
O66    O    -0.93628   0.10008  -0.55794   0.00000  Uiso   1.00
H52    H    -0.77251   0.10934  -0.55324   0.00000  Uiso   1.00
O67    O    -0.69174   0.14935  -0.57955   0.00000  Uiso   1.00
O68    O    -0.77535   0.16563  -0.62488   0.00000  Uiso   1.00
C157   C    -0.90129   0.37378  -0.06494   0.00000  Uiso   1.00
C158   C    -0.81482   0.37317  -0.06301   0.00000  Uiso   1.00
C159   C    -0.76706   0.40868  -0.04983   0.00000  Uiso   1.00
C160   C    -0.80610   0.44428  -0.02945   0.00000  Uiso   1.00
C161   C    -0.89248   0.44479  -0.02673   0.00000  Uiso   1.00
C162   C    -0.94043   0.40948  -0.04918   0.00000  Uiso   1.00
H53    H    -0.93679   0.34745  -0.07818   0.00000  Uiso   1.00
O69    O    -0.77293   0.34282  -0.07339   0.00000  Uiso   1.00
O70    O    -0.68998   0.40471  -0.05685   0.00000  Uiso   1.00
H54    H    -0.77061  -0.52939  -1.01619   0.00000  Uiso   1.00
O71    O    -0.93414  -0.52505  -1.00648   0.00000  Uiso   1.00
O72    O    -0.01769   0.41369  -0.05190   0.00000  Uiso   1.00
C163   C    -0.90110   0.69612  -0.06434   0.00000  Uiso   1.00
C164   C    -0.94016   0.67610  -0.04858   0.00000  Uiso   1.00
C165   C    -0.89217   0.66307  -0.02614   0.00000  Uiso   1.00
C166   C    -0.80577   0.66093  -0.02877   0.00000  Uiso   1.00
C167   C    -0.76678   0.67628  -0.04912   0.00000  Uiso   1.00
C168   C    -0.81464   0.69860  -0.06242   0.00000  Uiso   1.00
H55    H    -0.93665   0.70926  -0.07762   0.00000  Uiso   1.00
O73    O    -0.01740   0.66925  -0.05132   0.00000  Uiso   1.00
O74    O    -0.93380   0.65296  -0.00599   0.00000  Uiso   1.00
H56    H    -0.77023   0.64780  -0.01549   0.00000  Uiso   1.00
O75    O    -0.68966   0.67331  -0.05606   0.00000  Uiso   1.00
O76    O    -0.77287   0.71852  -0.07292   0.00000  Uiso   1.00
C169   C    -0.80798  -0.55518  -0.56594   0.00000  Uiso   1.00
C170   C    -0.76885  -0.59089  -0.58168   0.00000  Uiso   1.00
C171   C    -0.81680   0.37381  -0.60414   0.00000  Uiso   1.00
C172   C    -0.90318   0.37431  -0.60141   0.00000  Uiso   1.00
C173   C    -0.94222   0.40992  -0.58105   0.00000  Uiso   1.00
C174   C    -0.89446  -0.55457  -0.56787   0.00000  Uiso   1.00
H57    H    -0.77248  -0.52885  -0.55271   0.00000  Uiso   1.00
O77    O    -0.69159  -0.59508  -0.57896   0.00000  Uiso   1.00
O78    O    -0.77514   0.34365  -0.62438   0.00000  Uiso   1.00
H58    H    -0.93867   0.34799  -0.61467   0.00000  Uiso   1.00
O79    O    -0.01930   0.41390  -0.57403   0.00000  Uiso   1.00
O80    O    -0.93634  -0.52422  -0.55749   0.00000  Uiso   1.00
C175   C    -0.90145   0.16047  -0.28036   0.00000  Uiso   1.00
C176   C    -0.81501   0.15831  -0.27969   0.00000  Uiso   1.00
C177   C    -0.76742   0.14565  -0.31475   0.00000  Uiso   1.00
C178   C    -0.80669   0.12547  -0.35018   0.00000  Uiso   1.00
C179   C    -0.89311   0.12261  -0.35082   0.00000  Uiso   1.00
C180   C    -0.94075   0.14507  -0.31581   0.00000  Uiso   1.00
H59    H    -0.93680   0.17351  -0.25428   0.00000  Uiso   1.00
O81    O    -0.77302   0.16806  -0.24966   0.00000  Uiso   1.00
O82    O    -0.69029   0.15283  -0.31057   0.00000  Uiso   1.00
H60    H    -0.77135   0.11238  -0.37625   0.00000  Uiso   1.00
O83    O    -0.93507   0.10224  -0.38079   0.00000  Uiso   1.00
O84    O    -0.01792   0.14799  -0.32005   0.00000  Uiso   1.00
loop_
_geom_bond_atom_site_label_1
_geom_bond_atom_site_label_2
_geom_bond_distance
_geom_bond_site_symmetry_2
_ccdc_geom_bond_type
Fe1    O13     1.898   1_566 A
Fe1    O14     1.878   .     A
Fe1    O37     1.904   .     A
Fe1    O38     1.879   1_566 A
Fe1    O71     1.895   1_666 A
Fe1    O72     1.896   .     A
Fe2    O5      1.879   .     A
Fe2    O6      1.897   .     A
Fe2    O41     1.879   .     A
Fe2    O42     1.906   1_545 A
Fe2    O63     1.896   .     A
Fe2    O64     1.896   1_655 A
Fe3    O9      1.898   .     A
Fe3    O10     1.878   .     A
Fe3    O47     1.879   .     A
Fe3    O48     1.905   .     A
Fe3    O65     1.896   .     A
Fe3    O66     1.895   1_655 A
Fe4    O29     1.877   .     A
Fe4    O30     1.898   1_566 A
Fe4    O39     1.879   1_566 A
Fe4    O40     1.904   .     A
Fe4    O73     1.896   .     A
Fe4    O74     1.895   1_655 A
Fe5    O33     1.878   .     A
Fe5    O34     1.898   .     A
Fe5    O43     1.905   1_545 A
Fe5    O44     1.879   .     A
Fe5    O79     1.896   1_545 A
Fe5    O80     1.895   1_655 A
Fe6    O19     1.898   .     A
Fe6    O20     1.878   .     A
Fe6    O45     1.905   .     A
Fe6    O46     1.879   .     A
Fe6    O83     1.896   1_655 A
Fe6    O84     1.896   .     A
C1     C2      1.507   .     A
C1     C6      1.497   .     A
C1     C11     1.357   .     A
C2     C3      1.508   .     A
C2     C14     1.369   .     A
C3     C4      1.527   .     A
C3     C10     1.364   .     A
C4     C5      1.508   .     A
C4     C7      1.364   .     A
C5     C6      1.508   .     A
C5     C18     1.369   .     A
C6     C15     1.357   .     A
C7     C8      1.460   .     A
C7     H1      1.077   .     A
C8     C9      1.424   .     A
C8     O1      1.215   .     A
C9     C10     1.460   .     A
C9     O2      1.215   .     A
C10    H2      1.077   .     A
C11    C12     1.457   1_545 A
C11    H3      1.080   1_545 A
C12    C11     1.457   1_565 A
C12    C13     1.448   1_565 A
C12    O3      1.215   .     A
C13    C12     1.448   1_545 A
C13    C14     1.471   .     A
C13    O4      1.225   .     A
C14    H4      1.077   .     A
C15    C16     1.457   .     A
C15    H5      1.080   1_545 A
C16    C17     1.448   .     A
C16    O5      1.215   .     A
C17    C18     1.471   .     A
C17    O6      1.224   .     A
C18    H6      1.077   .     A
O1     Cu1     1.763   .     A
O2     Cu1     1.763   .     A
H3     C11     1.080   1_565 A
O3     Fe9     1.878   .     A
O4     Fe9     1.898   1_545 A
H5     C15     1.080   1_565 A
C19    C20     1.508   .     A
C19    C24     1.509   .     A
C19    C29     1.369   .     A
C20    C21     1.496   .     A
C20    C32     1.358   .     A
C21    C22     1.507   .     A
C21    C28     1.357   .     A
C22    C23     1.508   .     A
C22    C25     1.369   .     A
C23    C24     1.527   .     A
C23    C36     1.364   .     A
C24    C33     1.364   .     A
C25    C26     1.472   .     A
C25    H7      1.077   .     A
C26    C27     1.448   .     A
C26    O7      1.225   .     A
C27    C28     1.456   .     A
C27    O8      1.215   .     A
C28    H8      1.080   .     A
C29    C30     1.471   .     A
C29    H9      1.077   .     A
C30    C31     1.448   .     A
C30    O9      1.224   .     A
C31    C32     1.456   .     A
C31    O10     1.215   .     A
C32    H10     1.080   .     A
C33    C34     1.461   .     A
C33    H11     1.077   .     A
C34    C35     1.424   .     A
C34    O11     1.215   .     A
C35    C36     1.461   .     A
C35    O12     1.215   .     A
C36    H12     1.077   .     A
O7     Fe7     1.898   .     A
O8     Fe7     1.877   .     A
O11    Cu2     1.763   .     A
O12    Cu2     1.764   .     A
C37    C38     1.508   1_544 A
C37    C42     1.509   .     A
C37    C47     1.369   .     A
C38    C37     1.508   1_566 A
C38    C39     1.497   1_566 A
C38    C50     1.357   .     A
C39    C38     1.497   1_544 A
C39    C40     1.507   .     A
C39    C46     1.357   1_544 A
C40    C41     1.508   .     A
C40    C43     1.369   .     A
C41    C42     1.527   .     A
C41    C54     1.364   .     A
C42    C51     1.364   .     A
C43    C44     1.471   .     A
C43    H13     1.077   .     A
C44    C45     1.448   1_544 A
C44    O13     1.225   .     A
C45    C44     1.448   1_566 A
C45    C46     1.456   .     A
C45    O14     1.215   .     A
C46    C39     1.357   1_566 A
C46    H14     1.080   .     A
C47    C48     1.471   1_544 A
C47    H15     1.077   .     A
C48    C47     1.471   1_566 A
C48    C49     1.448   .     A
C48    O15     1.224   .     A
C49    C50     1.456   .     A
C49    O16     1.215   .     A
C50    H16     1.080   .     A
C51    C52     1.461   .     A
C51    H17     1.077   .     A
C52    C53     1.424   .     A
C52    O17     1.215   .     A
C53    C54     1.461   .     A
C53    O18     1.215   .     A
C54    H18     1.077   .     A
O13    Fe1     1.898   1_544 A
O15    Fe8     1.898   .     A
O16    Fe8     1.878   .     A
O17    Cu3     1.763   .     A
O18    Cu3     1.763   .     A
C55    C56     1.508   .     A
C55    C60     1.508   .     A
C55    C65     1.369   .     A
C56    C57     1.497   .     A
C56    C68     1.357   .     A
C57    C58     1.507   .     A
C57    C64     1.357   .     A
C58    C59     1.508   .     A
C58    C61     1.369   .     A
C59    C60     1.527   .     A
C59    C72     1.364   .     A
C60    C69     1.364   .     A
C61    C62     1.471   .     A
C61    H19     1.077   .     A
C62    C63     1.448   .     A
C62    O19     1.225   .     A
C63    C64     1.457   .     A
C63    O20     1.215   .     A
C64    H20     1.080   .     A
C65    C66     1.471   .     A
C65    H21     1.077   .     A
C66    C67     1.448   .     A
C66    O21     1.224   .     A
C67    C68     1.457   .     A
C67    O22     1.216   .     A
C68    H22     1.080   .     A
C69    C70     1.460   .     A
C69    H23     1.077   .     A
C70    C71     1.424   .     A
C70    O23     1.215   .     A
C71    C72     1.460   .     A
C71    O24     1.215   .     A
C72    H24     1.077   .     A
O21    Fe11    1.897   .     A
O22    Fe11    1.879   .     A
O23    Cu1     1.763   .     A
O24    Cu1     1.763   .     A
C73    C74     1.508   1_566 A
C73    C78     1.496   1_566 A
C73    C83     1.358   .     A
C74    C73     1.508   1_544 A
C74    C75     1.509   .     A
C74    C86     1.369   .     A
C75    C76     1.527   .     A
C75    C82     1.364   .     A
C76    C77     1.508   .     A
C76    C79     1.364   .     A
C77    C78     1.507   .     A
C77    C90     1.369   .     A
C78    C73     1.496   1_544 A
C78    C87     1.357   1_544 A
C79    C80     1.461   .     A
C79    H25     1.077   .     A
C80    C81     1.424   .     A
C80    O25     1.215   .     A
C81    C82     1.461   .     A
C81    O26     1.215   .     A
C82    H26     1.077   .     A
C83    C84     1.456   .     A
C83    H27     1.080   .     A
C84    C85     1.448   .     A
C84    O27     1.215   .     A
C85    C86     1.471   1_566 A
C85    O28     1.224   .     A
C86    C85     1.471   1_544 A
C86    H28     1.077   .     A
C87    C78     1.357   1_566 A
C87    C88     1.456   .     A
C87    H29     1.080   .     A
C88    C89     1.448   1_566 A
C88    O29     1.215   .     A
C89    C88     1.448   1_544 A
C89    C90     1.472   .     A
C89    O30     1.225   .     A
C90    H30     1.077   .     A
O25    Cu2     1.764   .     A
O26    Cu2     1.763   .     A
O27    Fe12    1.878   .     A
O28    Fe12    1.898   .     A
O30    Fe4     1.898   1_544 A
C91    C92     1.508   .     A
C91    C96     1.497   .     A
C91    C101    1.357   .     A
C92    C93     1.509   .     A
C92    C104    1.369   .     A
C93    C94     1.527   .     A
C93    C100    1.364   .     A
C94    C95     1.508   .     A
C94    C97     1.364   .     A
C95    C96     1.507   .     A
C95    C108    1.369   .     A
C96    C105    1.357   .     A
C97    C98     1.461   .     A
C97    H31     1.077   .     A
C98    C99     1.424   .     A
C98    O31     1.215   .     A
C99    C100    1.461   .     A
C99    O32     1.215   .     A
C100   H32     1.077   .     A
C101   C102    1.456   .     A
C101   H33     1.080   1_545 A
C102   C103    1.448   .     A
C102   O33     1.215   .     A
C103   C104    1.471   .     A
C103   O34     1.224   .     A
C104   H34     1.077   .     A
C105   C106    1.456   1_545 A
C105   H35     1.080   1_545 A
C106   C105    1.456   1_565 A
C106   C107    1.448   1_565 A
C106   O35     1.215   .     A
C107   C106    1.448   1_545 A
C107   C108    1.471   .     A
C107   O36     1.225   .     A
C108   H36     1.077   .     A
O31    Cu3     1.763   .     A
O32    Cu3     1.763   .     A
H33    C101    1.080   1_565 A
H35    C105    1.080   1_565 A
O35    Fe10    1.877   .     A
O36    Fe10    1.898   1_545 A
Fe7    O49     1.879   .     A
Fe7    O50     1.904   .     A
Fe7    O67     1.896   .     A
Fe7    O68     1.895   .     A
Fe8    O53     1.905   .     A
Fe8    O54     1.879   .     A
Fe8    O69     1.895   .     A
Fe8    O70     1.896   .     A
Fe9    O4      1.898   1_565 A
Fe9    O59     1.905   .     A
Fe9    O60     1.879   .     A
Fe9    O61     1.896   .     A
Fe9    O62     1.896   .     A
Fe10   O36     1.898   1_565 A
Fe10   O51     1.904   .     A
Fe10   O52     1.879   .     A
Fe10   O77     1.896   1_565 A
Fe10   O78     1.895   .     A
Fe11   O55     1.879   .     A
Fe11   O56     1.906   .     A
Fe11   O81     1.896   .     A
Fe11   O82     1.896   .     A
Fe12   O57     1.879   .     A
Fe12   O58     1.905   .     A
Fe12   O75     1.896   .     A
Fe12   O76     1.895   .     A
C109   C110    1.406   .     A
C109   C114    1.406   .     A
C109   H37     1.083   .     A
C110   C111    1.473   1_566 A
C110   O37     1.277   .     A
C111   C110    1.473   1_544 A
C111   C112    1.389   .     A
C111   O38     1.264   .     A
C112   C113    1.389   .     A
C112   H38     1.083   .     A
C113   C114    1.473   1_544 A
C113   O39     1.265   .     A
C114   C113    1.473   1_566 A
C114   O40     1.276   .     A
O38    Fe1     1.879   1_544 A
O39    Fe4     1.879   1_544 A
C115   C116    1.389   .     A
C115   C120    1.389   .     A
C115   H39     1.083   .     A
C116   C117    1.473   .     A
C116   O41     1.264   .     A
C117   C118    1.407   1_545 A
C117   O42     1.277   1_545 A
C118   C117    1.407   1_565 A
C118   C119    1.407   1_565 A
C118   H40     1.083   .     A
C119   C118    1.407   1_545 A
C119   C120    1.473   .     A
C119   O43     1.277   1_545 A
C120   O44     1.264   .     A
O42    Fe2     1.906   1_565 A
O42    C117    1.277   1_565 A
O43    Fe5     1.905   1_565 A
O43    C119    1.277   1_565 A
C121   C122    1.406   .     A
C121   C126    1.407   .     A
C121   H41     1.083   .     A
C122   C123    1.473   .     A
C122   O45     1.277   .     A
C123   C124    1.389   .     A
C123   O46     1.264   .     A
C124   C125    1.389   .     A
C124   H42     1.083   .     A
C125   C126    1.473   .     A
C125   O47     1.265   .     A
C126   O48     1.277   .     A
C127   C128    1.389   .     A
C127   C132    1.389   .     A
C127   H43     1.083   .     A
C128   C129    1.473   .     A
C128   O49     1.265   .     A
C129   C130    1.406   .     A
C129   O50     1.276   .     A
C130   C131    1.406   .     A
C130   H44     1.083   .     A
C131   C132    1.473   .     A
C131   O51     1.277   .     A
C132   O52     1.264   .     A
C133   C134    1.407   .     A
C133   C138    1.407   .     A
C133   H45     1.083   .     A
C134   C135    1.473   .     A
C134   O53     1.277   .     A
C135   C136    1.389   .     A
C135   O54     1.264   .     A
C136   C137    1.389   .     A
C136   H46     1.083   .     A
C137   C138    1.473   .     A
C137   O55     1.264   .     A
C138   O56     1.277   .     A
C139   C140    1.389   .     A
C139   C144    1.389   .     A
C139   H47     1.083   .     A
C140   C141    1.473   .     A
C140   O57     1.265   .     A
C141   C142    1.407   .     A
C141   O58     1.277   .     A
C142   C143    1.406   .     A
C142   H48     1.083   .     A
C143   C144    1.473   .     A
C143   O59     1.277   .     A
C144   O60     1.264   .     A
C145   C146    1.400   1_545 A
C145   C150    1.400   .     A
C145   H49     1.083   .     A
C146   C145    1.400   1_565 A
C146   C147    1.469   .     A
C146   O61     1.271   .     A
C147   C148    1.401   .     A
C147   O62     1.270   .     A
C148   C149    1.400   .     A
C148   H50     1.083   .     A
C149   C150    1.469   1_565 A
C149   O63     1.271   1_465 A
C150   C149    1.469   1_545 A
C150   O64     1.270   .     A
O63    C149    1.271   1_645 A
O64    Fe2     1.896   1_455 A
C151   C152    1.400   .     A
C151   C156    1.400   .     A
C151   H51     1.083   .     A
C152   C153    1.470   .     A
C152   O65     1.271   1_455 A
C153   C154    1.400   .     A
C153   O66     1.270   .     A
C154   C155    1.400   .     A
C154   H52     1.083   .     A
C155   C156    1.470   .     A
C155   O67     1.271   .     A
C156   O68     1.270   .     A
O65    C152    1.271   1_655 A
O66    Fe3     1.895   1_455 A
C157   C158    1.400   .     A
C157   C162    1.400   .     A
C157   H53     1.083   .     A
C158   C159    1.470   .     A
C158   O69     1.270   .     A
C159   C160    1.400   .     A
C159   O70     1.271   .     A
C160   C161    1.400   .     A
C160   H54     1.083   1_566 A
C161   C162    1.470   .     A
C161   O71     1.270   1_566 A
C162   O72     1.271   1_455 A
H54    C160    1.083   1_544 A
O71    Fe1     1.895   1_444 A
O71    C161    1.270   1_544 A
O72    C162    1.271   1_655 A
C163   C164    1.400   .     A
C163   C168    1.400   .     A
C163   H55     1.083   .     A
C164   C165    1.470   .     A
C164   O73     1.271   1_455 A
C165   C166    1.400   .     A
C165   O74     1.270   .     A
C166   C167    1.400   .     A
C166   H56     1.083   .     A
C167   C168    1.470   .     A
C167   O75     1.271   .     A
C168   O76     1.270   .     A
O73    C164    1.271   1_655 A
O74    Fe4     1.895   1_455 A
C169   C170    1.400   .     A
C169   C174    1.400   .     A
C169   H57     1.083   .     A
C170   C171    1.470   1_545 A
C170   O77     1.271   .     A
C171   C170    1.470   1_565 A
C171   C172    1.400   .     A
C171   O78     1.270   .     A
C172   C173    1.400   .     A
C172   H58     1.083   .     A
C173   C174    1.470   1_565 A
C173   O79     1.271   1_455 A
C174   C173    1.470   1_545 A
C174   O80     1.270   .     A
O77    Fe10    1.896   1_545 A
O79    Fe5     1.896   1_565 A
O79    C173    1.271   1_655 A
O80    Fe5     1.895   1_455 A
C175   C176    1.400   .     A
C175   C180    1.400   .     A
C175   H59     1.083   .     A
C176   C177    1.469   .     A
C176   O81     1.270   .     A
C177   C178    1.400   .     A
C177   O82     1.271   .     A
C178   C179    1.401   .     A
C178   H60     1.083   .     A
C179   C180    1.469   .     A
C179   O83     1.270   .     A
C180   O84     1.271   1_455 A
O83    Fe6     1.896   1_455 A
O84    C180    1.271   1_655 A
