data_etc-TP_O-Zntet
_audit_creation_date              2021-11-06
_audit_creation_method            'Materials Studio'
_symmetry_space_group_name_H-M    'P1'
_symmetry_Int_Tables_number       1
_symmetry_cell_setting            triclinic
loop_
_symmetry_equiv_pos_as_xyz
  x,y,z
_cell_length_a                    52.6138
_cell_length_b                    52.6141
_cell_length_c                    21.4413
_cell_angle_alpha                 90.0000
_cell_angle_beta                  90.0000
_cell_angle_gamma                 119.8248
loop_
_atom_site_label
_atom_site_type_symbol
_atom_site_fract_x
_atom_site_fract_y
_atom_site_fract_z
_atom_site_U_iso_or_equiv
_atom_site_adp_type
_atom_site_occupancy
C1     C     0.69411   0.33298   0.25000   0.00000  Uiso   1.00
C2     C     0.69405   0.36014   0.25000   0.00000  Uiso   1.00
C3     C     0.66692   0.36018   0.25001   0.00000  Uiso   1.00
C4     C     0.63981   0.33306   0.25001   0.00000  Uiso   1.00
C5     C     0.63986   0.30594   0.25001   0.00000  Uiso   1.00
C6     C     0.66703   0.30590   0.25001   0.00000  Uiso   1.00
C7     C     0.61321   0.33400   0.25001   0.00000  Uiso   1.00
C8     C     0.61314   0.36036   0.25001   0.00000  Uiso   1.00
C9     C     0.63960   0.38682   0.25001   0.00000  Uiso   1.00
C10    C     0.66596   0.38677   0.25001   0.00000  Uiso   1.00
C11    C     0.72160   0.33384   0.25000   0.00000  Uiso   1.00
C12    C     0.74793   0.36016   0.25000   0.00000  Uiso   1.00
C13    C     0.74787   0.38667   0.25000   0.00000  Uiso   1.00
C14    C     0.72149   0.38669   0.25000   0.00000  Uiso   1.00
C15    C     0.66619   0.27841   0.25001   0.00000  Uiso   1.00
C16    C     0.63988   0.25208   0.25001   0.00000  Uiso   1.00
C17    C     0.61337   0.25213   0.25001   0.00000  Uiso   1.00
C18    C     0.61333   0.27850   0.25001   0.00000  Uiso   1.00
H1     H     0.59184   0.31483   0.25001   0.00000  Uiso   1.00
O1     O     0.58673   0.36062   0.25001   0.00000  Uiso   1.00
O2     O     0.63932   0.41323   0.25001   0.00000  Uiso   1.00
H2     H     0.68513   0.40814   0.25001   0.00000  Uiso   1.00
H3     H     0.72385   0.31464   0.25000   0.00000  Uiso   1.00
O3     O     0.77457   0.36036   0.25000   0.00000  Uiso   1.00
O4     O     0.77444   0.41303   0.25000   0.00000  Uiso   1.00
H4     H     0.72364   0.40809   0.25000   0.00000  Uiso   1.00
H5     H     0.68540   0.27618   0.25001   0.00000  Uiso   1.00
O5     O     0.63970   0.22545   0.25001   0.00000  Uiso   1.00
O6     O     0.58701   0.22554   0.25001   0.00000  Uiso   1.00
H6     H     0.59192   0.27633   0.25001   0.00000  Uiso   1.00
C19    C     0.30590   0.66702   0.75000   0.00000  Uiso   1.00
C20    C     0.30595   0.63986   0.75000   0.00000  Uiso   1.00
C21    C     0.33308   0.63981   0.75001   0.00000  Uiso   1.00
C22    C     0.36019   0.66693   0.75001   0.00000  Uiso   1.00
C23    C     0.36014   0.69406   0.75001   0.00000  Uiso   1.00
C24    C     0.33297   0.69410   0.75001   0.00000  Uiso   1.00
C25    C     0.38679   0.66599   0.75001   0.00000  Uiso   1.00
C26    C     0.38685   0.63964   0.75001   0.00000  Uiso   1.00
C27    C     0.36039   0.61317   0.75001   0.00000  Uiso   1.00
C28    C     0.33403   0.61323   0.75001   0.00000  Uiso   1.00
C29    C     0.27840   0.66616   0.75000   0.00000  Uiso   1.00
C30    C     0.25208   0.63984   0.75000   0.00000  Uiso   1.00
C31    C     0.25214   0.61334   0.75000   0.00000  Uiso   1.00
C32    C     0.27851   0.61332   0.75000   0.00000  Uiso   1.00
C33    C     0.33382   0.72159   0.75001   0.00000  Uiso   1.00
C34    C     0.36014   0.74792   0.75001   0.00000  Uiso   1.00
C35    C     0.38664   0.74787   0.75001   0.00000  Uiso   1.00
C36    C     0.38668   0.72150   0.75001   0.00000  Uiso   1.00
H7     H     0.40816   0.68516   0.75001   0.00000  Uiso   1.00
O7     O     0.41326   0.63937   0.75001   0.00000  Uiso   1.00
O8     O     0.36067   0.58677   0.75001   0.00000  Uiso   1.00
H8     H     0.31487   0.59185   0.75001   0.00000  Uiso   1.00
H9     H     0.27616   0.68537   0.75000   0.00000  Uiso   1.00
O9     O     0.22544   0.63965   0.75000   0.00000  Uiso   1.00
O10    O     0.22556   0.58698   0.75000   0.00000  Uiso   1.00
H10    H     0.27635   0.59192   0.75000   0.00000  Uiso   1.00
H11    H     0.31461   0.72382   0.75001   0.00000  Uiso   1.00
O11    O     0.36032   0.77455   0.75000   0.00000  Uiso   1.00
O12    O     0.41300   0.77445   0.75001   0.00000  Uiso   1.00
H12    H     0.40808   0.72367   0.75001   0.00000  Uiso   1.00
C37    C     0.52061   0.04071   0.21673   0.00000  Uiso   1.00
C38    C     0.53429   0.06790   0.18333   0.00000  Uiso   1.00
C39    C     0.54793   0.09499   0.21664   0.00000  Uiso   1.00
C40    C     0.54793   0.09499   0.28336   0.00000  Uiso   1.00
C41    C     0.53428   0.06790   0.31666   0.00000  Uiso   1.00
C42    C     0.52061   0.04071   0.28326   0.00000  Uiso   1.00
C43    C     0.56174   0.12243   0.31493   0.00000  Uiso   1.00
C44    C     0.57499   0.14878   0.28257   0.00000  Uiso   1.00
C45    C     0.57499   0.14879   0.21744   0.00000  Uiso   1.00
C46    C     0.56174   0.12243   0.18507   0.00000  Uiso   1.00
C47    C     0.50723   0.01414   0.18180   0.00000  Uiso   1.00
C48    C     0.50743   0.01459   0.11709   0.00000  Uiso   1.00
C49    C     0.52039   0.04037   0.08538   0.00000  Uiso   1.00
C50    C     0.53377   0.06694   0.11685   0.00000  Uiso   1.00
C51    C     0.50723   0.01414   0.31819   0.00000  Uiso   1.00
C52    C     0.50743   0.01459   0.38290   0.00000  Uiso   1.00
C53    C     0.52039   0.04037   0.41461   0.00000  Uiso   1.00
C54    C     0.53377   0.06693   0.38314   0.00000  Uiso   1.00
H13    H     0.56282   0.12457   0.36483   0.00000  Uiso   1.00
O13    O     0.58834   0.17539   0.31471   0.00000  Uiso   1.00
O14    O     0.58834   0.17539   0.18529   0.00000  Uiso   1.00
H14    H     0.56283   0.12457   0.13517   0.00000  Uiso   1.00
H15    H     0.49644   0.99269   0.20244   0.00000  Uiso   1.00
O15    O     0.49473   0.98939   0.08135   0.00000  Uiso   1.00
O16    O     0.51937   0.03841   0.02105   0.00000  Uiso   1.00
H16    H     0.54336   0.08602   0.08753   0.00000  Uiso   1.00
H17    H     0.49644   0.99269   0.29754   0.00000  Uiso   1.00
O17    O     0.49472   0.98939   0.41863   0.00000  Uiso   1.00
O18    O     0.51936   0.03841   0.47894   0.00000  Uiso   1.00
H18    H     0.54336   0.08602   0.41246   0.00000  Uiso   1.00
C55    C     0.46597   0.53405   0.68334   0.00000  Uiso   1.00
C56    C     0.47960   0.52042   0.71674   0.00000  Uiso   1.00
C57    C     0.47960   0.52042   0.78326   0.00000  Uiso   1.00
C58    C     0.46597   0.53405   0.81666   0.00000  Uiso   1.00
C59    C     0.45239   0.54764   0.78336   0.00000  Uiso   1.00
C60    C     0.45239   0.54764   0.71664   0.00000  Uiso   1.00
C61    C     0.46644   0.53356   0.88314   0.00000  Uiso   1.00
C62    C     0.47976   0.52023   0.91462   0.00000  Uiso   1.00
C63    C     0.49269   0.50731   0.88290   0.00000  Uiso   1.00
C64    C     0.49292   0.50709   0.81819   0.00000  Uiso   1.00
C65    C     0.46644   0.53356   0.61686   0.00000  Uiso   1.00
C66    C     0.47976   0.52024   0.58538   0.00000  Uiso   1.00
C67    C     0.49269   0.50731   0.61709   0.00000  Uiso   1.00
C68    C     0.49292   0.50709   0.68180   0.00000  Uiso   1.00
C69    C     0.43864   0.56140   0.68507   0.00000  Uiso   1.00
C70    C     0.42543   0.57461   0.71744   0.00000  Uiso   1.00
C71    C     0.42543   0.57461   0.78257   0.00000  Uiso   1.00
C72    C     0.43864   0.56140   0.81494   0.00000  Uiso   1.00
H19    H     0.45687   0.54312   0.91247   0.00000  Uiso   1.00
O19    O     0.48074   0.51924   0.97895   0.00000  Uiso   1.00
O20    O     0.50532   0.49467   0.91864   0.00000  Uiso   1.00
H20    H     0.50367   0.49634   0.79754   0.00000  Uiso   1.00
H21    H     0.45687   0.54312   0.58753   0.00000  Uiso   1.00
O21    O     0.48073   0.51925   0.52105   0.00000  Uiso   1.00
O22    O     0.50532   0.49468   0.58135   0.00000  Uiso   1.00
H22    H     0.50367   0.49634   0.70245   0.00000  Uiso   1.00
H23    H     0.43757   0.56247   0.63518   0.00000  Uiso   1.00
O23    O     0.41209   0.58795   0.68530   0.00000  Uiso   1.00
O24    O     0.41209   0.58795   0.81472   0.00000  Uiso   1.00
H24    H     0.43757   0.56247   0.86483   0.00000  Uiso   1.00
C73    C     0.93210   0.46577   0.18334   0.00000  Uiso   1.00
C74    C     0.95929   0.47944   0.21674   0.00000  Uiso   1.00
C75    C     0.95929   0.47944   0.28326   0.00000  Uiso   1.00
C76    C     0.93210   0.46577   0.31666   0.00000  Uiso   1.00
C77    C     0.90501   0.45213   0.28336   0.00000  Uiso   1.00
C78    C     0.90501   0.45213   0.21664   0.00000  Uiso   1.00
C79    C     0.93306   0.46627   0.38314   0.00000  Uiso   1.00
C80    C     0.95963   0.47965   0.41462   0.00000  Uiso   1.00
C81    C     0.98541   0.49261   0.38291   0.00000  Uiso   1.00
C82    C     0.98586   0.49282   0.31820   0.00000  Uiso   1.00
C83    C     0.93306   0.46627   0.11685   0.00000  Uiso   1.00
C84    C     0.95963   0.47965   0.08538   0.00000  Uiso   1.00
C85    C     0.98541   0.49261   0.11709   0.00000  Uiso   1.00
C86    C     0.98586   0.49282   0.18180   0.00000  Uiso   1.00
C87    C     0.87757   0.43832   0.18507   0.00000  Uiso   1.00
C88    C     0.85122   0.42508   0.21743   0.00000  Uiso   1.00
C89    C     0.85122   0.42508   0.28256   0.00000  Uiso   1.00
C90    C     0.87757   0.43832   0.31493   0.00000  Uiso   1.00
H25    H     0.91398   0.45668   0.41246   0.00000  Uiso   1.00
O25    O     0.96159   0.48066   0.47895   0.00000  Uiso   1.00
O26    O     0.01061   0.50530   0.41864   0.00000  Uiso   1.00
H26    H     0.00731   0.50360   0.29755   0.00000  Uiso   1.00
H27    H     0.91398   0.45668   0.08753   0.00000  Uiso   1.00
O27    O     0.96159   0.48066   0.02105   0.00000  Uiso   1.00
O28    O     0.01061   0.50530   0.08136   0.00000  Uiso   1.00
H28    H     0.00731   0.50360   0.20245   0.00000  Uiso   1.00
H29    H     0.87543   0.43725   0.13517   0.00000  Uiso   1.00
O29    O     0.82461   0.41173   0.18529   0.00000  Uiso   1.00
O30    O     0.82461   0.41173   0.31471   0.00000  Uiso   1.00
H30    H     0.87543   0.43725   0.36482   0.00000  Uiso   1.00
C91    C     0.46574   0.93210   0.81666   0.00000  Uiso   1.00
C92    C     0.47942   0.95929   0.78326   0.00000  Uiso   1.00
C93    C     0.47942   0.95929   0.71673   0.00000  Uiso   1.00
C94    C     0.46574   0.93210   0.68333   0.00000  Uiso   1.00
C95    C     0.45209   0.90501   0.71664   0.00000  Uiso   1.00
C96    C     0.45209   0.90501   0.78336   0.00000  Uiso   1.00
C97    C     0.46625   0.93306   0.61685   0.00000  Uiso   1.00
C98    C     0.47963   0.95963   0.58538   0.00000  Uiso   1.00
C99    C     0.49260   0.98541   0.61708   0.00000  Uiso   1.00
C100   C     0.49281   0.98586   0.68180   0.00000  Uiso   1.00
C101   C     0.46625   0.93307   0.88314   0.00000  Uiso   1.00
C102   C     0.47964   0.95963   0.91461   0.00000  Uiso   1.00
C103   C     0.49260   0.98541   0.88290   0.00000  Uiso   1.00
C104   C     0.49281   0.98586   0.81819   0.00000  Uiso   1.00
C105   C     0.43828   0.87757   0.81493   0.00000  Uiso   1.00
C106   C     0.42503   0.85122   0.78257   0.00000  Uiso   1.00
C107   C     0.42503   0.85121   0.71744   0.00000  Uiso   1.00
C108   C     0.43828   0.87757   0.68507   0.00000  Uiso   1.00
H31    H     0.45665   0.91398   0.58753   0.00000  Uiso   1.00
O31    O     0.48065   0.96159   0.52105   0.00000  Uiso   1.00
O32    O     0.50531   0.01061   0.58135   0.00000  Uiso   1.00
H32    H     0.50360   0.00731   0.70244   0.00000  Uiso   1.00
H33    H     0.45665   0.91398   0.91246   0.00000  Uiso   1.00
O33    O     0.48065   0.96159   0.97894   0.00000  Uiso   1.00
O34    O     0.50531   0.01062   0.91863   0.00000  Uiso   1.00
H34    H     0.50360   0.00731   0.79754   0.00000  Uiso   1.00
H35    H     0.43720   0.87543   0.86483   0.00000  Uiso   1.00
O35    O     0.41168   0.82461   0.81471   0.00000  Uiso   1.00
O36    O     0.41168   0.82461   0.68529   0.00000  Uiso   1.00
H36    H     0.43720   0.87543   0.63517   0.00000  Uiso   1.00
C109   C     0.52039   0.47957   0.28326   0.00000  Uiso   1.00
C110   C     0.53402   0.46593   0.31666   0.00000  Uiso   1.00
C111   C     0.54759   0.45234   0.28336   0.00000  Uiso   1.00
C112   C     0.54759   0.45234   0.21664   0.00000  Uiso   1.00
C113   C     0.53402   0.46593   0.18334   0.00000  Uiso   1.00
C114   C     0.52039   0.47957   0.21674   0.00000  Uiso   1.00
C115   C     0.56135   0.43858   0.18507   0.00000  Uiso   1.00
C116   C     0.57456   0.42537   0.21744   0.00000  Uiso   1.00
C117   C     0.57456   0.42537   0.28257   0.00000  Uiso   1.00
C118   C     0.56135   0.43859   0.31494   0.00000  Uiso   1.00
C119   C     0.50707   0.49290   0.31819   0.00000  Uiso   1.00
C120   C     0.50730   0.49267   0.38290   0.00000  Uiso   1.00
C121   C     0.52022   0.47974   0.41462   0.00000  Uiso   1.00
C122   C     0.53353   0.46641   0.38314   0.00000  Uiso   1.00
C123   C     0.50707   0.49290   0.18180   0.00000  Uiso   1.00
C124   C     0.50730   0.49267   0.11709   0.00000  Uiso   1.00
C125   C     0.52022   0.47974   0.08538   0.00000  Uiso   1.00
C126   C     0.53353   0.46641   0.11686   0.00000  Uiso   1.00
H37    H     0.56242   0.43752   0.13518   0.00000  Uiso   1.00
O37    O     0.58790   0.41203   0.18530   0.00000  Uiso   1.00
O38    O     0.58790   0.41203   0.31472   0.00000  Uiso   1.00
H38    H     0.56242   0.43752   0.36483   0.00000  Uiso   1.00
H39    H     0.49632   0.50365   0.29754   0.00000  Uiso   1.00
O39    O     0.49467   0.50531   0.41863   0.00000  Uiso   1.00
O40    O     0.51923   0.48072   0.47895   0.00000  Uiso   1.00
H40    H     0.54309   0.45684   0.41247   0.00000  Uiso   1.00
H41    H     0.49633   0.50365   0.20245   0.00000  Uiso   1.00
O41    O     0.49467   0.50531   0.08135   0.00000  Uiso   1.00
O42    O     0.51923   0.48072   0.02105   0.00000  Uiso   1.00
H42    H     0.54309   0.45684   0.08753   0.00000  Uiso   1.00
C127   C     0.04071   0.52058   0.78326   0.00000  Uiso   1.00
C128   C     0.06790   0.53425   0.81666   0.00000  Uiso   1.00
C129   C     0.09499   0.54789   0.78336   0.00000  Uiso   1.00
C130   C     0.09499   0.54789   0.71664   0.00000  Uiso   1.00
C131   C     0.06790   0.53425   0.68334   0.00000  Uiso   1.00
C132   C     0.04071   0.52058   0.71674   0.00000  Uiso   1.00
C133   C     0.12244   0.56169   0.68507   0.00000  Uiso   1.00
C134   C     0.14879   0.57494   0.71743   0.00000  Uiso   1.00
C135   C     0.14879   0.57494   0.78256   0.00000  Uiso   1.00
C136   C     0.12244   0.56169   0.81493   0.00000  Uiso   1.00
C137   C     0.01414   0.50720   0.81820   0.00000  Uiso   1.00
C138   C     0.01459   0.50740   0.88291   0.00000  Uiso   1.00
C139   C     0.04037   0.52036   0.91462   0.00000  Uiso   1.00
C140   C     0.06694   0.53374   0.88314   0.00000  Uiso   1.00
C141   C     0.01414   0.50720   0.68180   0.00000  Uiso   1.00
C142   C     0.01459   0.50741   0.61709   0.00000  Uiso   1.00
C143   C     0.04037   0.52036   0.58538   0.00000  Uiso   1.00
C144   C     0.06694   0.53374   0.61685   0.00000  Uiso   1.00
H43    H     0.12457   0.56277   0.63517   0.00000  Uiso   1.00
O43    O     0.17540   0.58829   0.68529   0.00000  Uiso   1.00
O44    O     0.17540   0.58829   0.81471   0.00000  Uiso   1.00
H44    H     0.12457   0.56277   0.86482   0.00000  Uiso   1.00
H45    H     0.99269   0.49642   0.79755   0.00000  Uiso   1.00
O45    O     0.98939   0.49471   0.91864   0.00000  Uiso   1.00
O46    O     0.03841   0.51935   0.97895   0.00000  Uiso   1.00
H46    H     0.08602   0.54333   0.91246   0.00000  Uiso   1.00
H47    H     0.99269   0.49642   0.70245   0.00000  Uiso   1.00
O47    O     0.98939   0.49471   0.58136   0.00000  Uiso   1.00
O48    O     0.03841   0.51935   0.52105   0.00000  Uiso   1.00
H48    H     0.08602   0.54333   0.58753   0.00000  Uiso   1.00
Cu1    Cu    0.50001   1.00000   0.99999   0.00000  Uiso   1.00
Cu2    Cu    0.49999   0.49999   0.49999   0.00000  Uiso   1.00
Cu3    Cu    0.00000   0.50000   1.00000   0.00000  Uiso   1.00
Cu4    Cu    0.50001   1.00000   0.49999   0.00000  Uiso   1.00
Cu5    Cu    0.49999   0.49999  -0.00001   0.00000  Uiso   1.00
Cu6    Cu    0.00000   0.50000   0.50000   0.00000  Uiso   1.00
Zn1    Zn    0.60085   0.20044   0.25000   0.00000  Uiso   1.00
Zn2    Zn    0.39953   0.60051   0.75001   0.00000  Uiso   1.00
Zn3    Zn    0.79956   0.39920   0.25000   0.00000  Uiso   1.00
Zn4    Zn    0.39916   0.79956   0.75000   0.00000  Uiso   1.00
Zn5    Zn    0.60046   0.39948   0.25001   0.00000  Uiso   1.00
Zn6    Zn    0.20045   0.60081   0.75000   0.00000  Uiso   1.00
loop_
_geom_bond_atom_site_label_1
_geom_bond_atom_site_label_2
_geom_bond_distance
_geom_bond_site_symmetry_2
_ccdc_geom_bond_type
C1     C2      1.431   .     A
C1     C6      1.429   .     A
C1     C11     1.425   .     A
C2     C3      1.429   .     A
C2     C14     1.424   .     A
C3     C4      1.431   .     A
C3     C10     1.425   .     A
C4     C5      1.429   .     A
C4     C7      1.425   .     A
C5     C6      1.431   .     A
C5     C18     1.424   .     A
C6     C15     1.425   .     A
C7     C8      1.388   .     A
C7     H1      1.074   .     S
C8     C9      1.396   .     A
C8     O1      1.396   .     S
C9     C10     1.388   .     A
C9     O2      1.396   .     S
C10    H2      1.074   .     S
C11    C12     1.389   .     A
C11    H3      1.074   .     S
C12    C13     1.396   .     A
C12    O3      1.397   .     S
C13    C14     1.388   .     A
C13    O4      1.396   .     S
C14    H4      1.074   .     S
C15    C16     1.389   .     A
C15    H5      1.074   .     S
C16    C17     1.396   .     A
C16    O5      1.397   .     S
C17    C18     1.388   .     A
C17    O6      1.396   .     S
C18    H6      1.074   .     S
O1     Zn5     1.798   .     S
O2     Zn5     1.798   .     S
O3     Zn3     1.798   .     S
O4     Zn3     1.798   .     S
O5     Zn1     1.798   .     S
O6     Zn1     1.798   .     S
C19    C20     1.431   .     A
C19    C24     1.429   .     A
C19    C29     1.425   .     A
C20    C21     1.429   .     A
C20    C32     1.424   .     A
C21    C22     1.431   .     A
C21    C28     1.425   .     A
C22    C23     1.429   .     A
C22    C25     1.425   .     A
C23    C24     1.431   .     A
C23    C36     1.424   .     A
C24    C33     1.425   .     A
C25    C26     1.388   .     A
C25    H7      1.074   .     S
C26    C27     1.396   .     A
C26    O7      1.396   .     S
C27    C28     1.388   .     A
C27    O8      1.396   .     S
C28    H8      1.074   .     S
C29    C30     1.389   .     A
C29    H9      1.074   .     S
C30    C31     1.396   .     A
C30    O9      1.397   .     S
C31    C32     1.388   .     A
C31    O10     1.396   .     S
C32    H10     1.074   .     S
C33    C34     1.389   .     A
C33    H11     1.074   .     S
C34    C35     1.396   .     A
C34    O11     1.397   .     S
C35    C36     1.388   .     A
C35    O12     1.396   .     S
C36    H12     1.074   .     S
O7     Zn2     1.798   .     S
O8     Zn2     1.798   .     S
O9     Zn6     1.798   .     S
O10    Zn6     1.798   .     S
O11    Zn4     1.798   .     S
O12    Zn4     1.798   .     S
C37    C38     1.433   .     A
C37    C42     1.426   .     A
C37    C47     1.426   .     A
C38    C39     1.428   .     A
C38    C50     1.426   .     A
C39    C40     1.431   .     A
C39    C46     1.424   .     A
C40    C41     1.428   .     A
C40    C43     1.424   .     A
C41    C42     1.433   .     A
C41    C54     1.426   .     A
C42    C51     1.426   .     A
C43    C44     1.389   .     A
C43    H13     1.074   .     S
C44    C45     1.397   .     A
C44    O13     1.396   .     S
C45    C46     1.389   .     A
C45    O14     1.396   .     S
C46    H14     1.074   .     S
C47    C48     1.388   .     A
C47    H15     1.074   1_545 S
C48    C49     1.359   .     A
C48    O15     1.382   1_545 S
C49    C50     1.388   .     A
C49    O16     1.382   .     S
C50    H16     1.074   .     S
C51    C52     1.388   .     A
C51    H17     1.074   1_545 S
C52    C53     1.359   .     A
C52    O17     1.382   1_545 S
C53    C54     1.388   .     A
C53    O18     1.382   .     S
C54    H18     1.074   .     S
O13    Zn1     1.798   .     S
O14    Zn1     1.798   .     S
H15    C47     1.074   1_565 S
O15    C48     1.382   1_565 S
O15    Cu1     1.810   1_554 S
O16    Cu1     1.810   1_544 S
H17    C51     1.074   1_565 S
O17    C52     1.382   1_565 S
O17    Cu4     1.810   .     S
O18    Cu4     1.810   1_545 S
C55    C56     1.433   .     A
C55    C60     1.428   .     A
C55    C65     1.426   .     A
C56    C57     1.426   .     A
C56    C68     1.426   .     A
C57    C58     1.433   .     A
C57    C64     1.426   .     A
C58    C59     1.428   .     A
C58    C61     1.426   .     A
C59    C60     1.431   .     A
C59    C72     1.424   .     A
C60    C69     1.424   .     A
C61    C62     1.388   .     A
C61    H19     1.074   .     S
C62    C63     1.359   .     A
C62    O19     1.382   .     S
C63    C64     1.388   .     A
C63    O20     1.382   .     S
C64    H20     1.074   .     S
C65    C66     1.388   .     A
C65    H21     1.074   .     S
C66    C67     1.359   .     A
C66    O21     1.382   .     S
C67    C68     1.388   .     A
C67    O22     1.382   .     S
C68    H22     1.074   .     S
C69    C70     1.389   .     A
C69    H23     1.074   .     S
C70    C71     1.397   .     A
C70    O23     1.396   .     S
C71    C72     1.389   .     A
C71    O24     1.396   .     S
C72    H24     1.074   .     S
O19    Cu5     1.810   1_556 S
O20    Cu5     1.810   1_556 S
O21    Cu2     1.810   .     S
O22    Cu2     1.810   .     S
O23    Zn2     1.798   .     S
O24    Zn2     1.798   .     S
C73    C74     1.433   .     A
C73    C78     1.428   .     A
C73    C83     1.426   .     A
C74    C75     1.426   .     A
C74    C86     1.426   .     A
C75    C76     1.433   .     A
C75    C82     1.426   .     A
C76    C77     1.428   .     A
C76    C79     1.426   .     A
C77    C78     1.431   .     A
C77    C90     1.424   .     A
C78    C87     1.424   .     A
C79    C80     1.388   .     A
C79    H25     1.074   .     S
C80    C81     1.359   .     A
C80    O25     1.382   .     S
C81    C82     1.388   .     A
C81    O26     1.382   1_655 S
C82    H26     1.074   1_655 S
C83    C84     1.388   .     A
C83    H27     1.074   .     S
C84    C85     1.359   .     A
C84    O27     1.382   .     S
C85    C86     1.388   .     A
C85    O28     1.382   1_655 S
C86    H28     1.074   1_655 S
C87    C88     1.389   .     A
C87    H29     1.074   .     S
C88    C89     1.397   .     A
C88    O29     1.396   .     S
C89    C90     1.389   .     A
C89    O30     1.396   .     S
C90    H30     1.074   .     S
O25    Cu6     1.810   1_655 S
O26    C81     1.382   1_455 S
O26    Cu6     1.810   .     S
H26    C82     1.074   1_455 S
O27    Cu3     1.810   1_654 S
O28    C85     1.382   1_455 S
O28    Cu3     1.810   1_554 S
H28    C86     1.074   1_455 S
O29    Zn3     1.798   .     S
O30    Zn3     1.798   .     S
C91    C92     1.433   .     A
C91    C96     1.428   .     A
C91    C101    1.426   .     A
C92    C93     1.426   .     A
C92    C104    1.426   .     A
C93    C94     1.433   .     A
C93    C100    1.426   .     A
C94    C95     1.428   .     A
C94    C97     1.426   .     A
C95    C96     1.431   .     A
C95    C108    1.424   .     A
C96    C105    1.424   .     A
C97    C98     1.388   .     A
C97    H31     1.074   .     S
C98    C99     1.359   .     A
C98    O31     1.382   .     S
C99    C100    1.388   .     A
C99    O32     1.382   1_565 S
C100   H32     1.074   1_565 S
C101   C102    1.388   .     A
C101   H33     1.074   .     S
C102   C103    1.359   .     A
C102   O33     1.382   .     S
C103   C104    1.388   .     A
C103   O34     1.382   1_565 S
C104   H34     1.074   1_565 S
C105   C106    1.389   .     A
C105   H35     1.074   .     S
C106   C107    1.397   .     A
C106   O35     1.396   .     S
C107   C108    1.389   .     A
C107   O36     1.396   .     S
C108   H36     1.074   .     S
O31    Cu4     1.810   .     S
O32    C99     1.382   1_545 S
O32    Cu4     1.810   1_545 S
H32    C100    1.074   1_545 S
O33    Cu1     1.810   .     S
O34    C103    1.382   1_545 S
O34    Cu1     1.810   1_545 S
H34    C104    1.074   1_545 S
O35    Zn4     1.798   .     S
O36    Zn4     1.798   .     S
C109   C110    1.433   .     A
C109   C114    1.426   .     A
C109   C119    1.426   .     A
C110   C111    1.428   .     A
C110   C122    1.426   .     A
C111   C112    1.431   .     A
C111   C118    1.424   .     A
C112   C113    1.428   .     A
C112   C115    1.424   .     A
C113   C114    1.433   .     A
C113   C126    1.426   .     A
C114   C123    1.426   .     A
C115   C116    1.389   .     A
C115   H37     1.074   .     S
C116   C117    1.397   .     A
C116   O37     1.396   .     S
C117   C118    1.389   .     A
C117   O38     1.396   .     S
C118   H38     1.074   .     S
C119   C120    1.388   .     A
C119   H39     1.074   .     S
C120   C121    1.359   .     A
C120   O39     1.382   .     S
C121   C122    1.388   .     A
C121   O40     1.382   .     S
C122   H40     1.074   .     S
C123   C124    1.388   .     A
C123   H41     1.074   .     S
C124   C125    1.359   .     A
C124   O41     1.382   .     S
C125   C126    1.388   .     A
C125   O42     1.382   .     S
C126   H42     1.074   .     S
O37    Zn5     1.798   .     S
O38    Zn5     1.798   .     S
O39    Cu2     1.810   .     S
O40    Cu2     1.810   .     S
O41    Cu5     1.810   .     S
O42    Cu5     1.810   .     S
C127   C128    1.433   .     A
C127   C132    1.426   .     A
C127   C137    1.426   .     A
C128   C129    1.428   .     A
C128   C140    1.426   .     A
C129   C130    1.431   .     A
C129   C136    1.424   .     A
C130   C131    1.428   .     A
C130   C133    1.424   .     A
C131   C132    1.433   .     A
C131   C144    1.426   .     A
C132   C141    1.426   .     A
C133   C134    1.389   .     A
C133   H43     1.074   .     S
C134   C135    1.397   .     A
C134   O43     1.396   .     S
C135   C136    1.389   .     A
C135   O44     1.396   .     S
C136   H44     1.074   .     S
C137   C138    1.388   .     A
C137   H45     1.074   1_455 S
C138   C139    1.359   .     A
C138   O45     1.382   1_455 S
C139   C140    1.388   .     A
C139   O46     1.382   .     S
C140   H46     1.074   .     S
C141   C142    1.388   .     A
C141   H47     1.074   1_455 S
C142   C143    1.359   .     A
C142   O47     1.382   1_455 S
C143   C144    1.388   .     A
C143   O48     1.382   .     S
C144   H48     1.074   .     S
O43    Zn6     1.798   .     S
O44    Zn6     1.798   .     S
H45    C137    1.074   1_655 S
O45    C138    1.382   1_655 S
O45    Cu3     1.810   1_655 S
O46    Cu3     1.810   .     S
H47    C141    1.074   1_655 S
O47    C142    1.382   1_655 S
O47    Cu6     1.810   1_655 S
O48    Cu6     1.810   .     S
Cu1    O16     1.810   1_566 S
Cu1    O34     1.810   1_565 S
Cu1    O15     1.810   1_556 S
Cu3    O27     1.810   1_456 S
Cu3    O45     1.810   1_455 S
Cu3    O28     1.810   1_556 S
Cu4    O18     1.810   1_565 S
Cu4    O32     1.810   1_565 S
Cu5    O19     1.810   1_554 S
Cu5    O20     1.810   1_554 S
Cu6    O25     1.810   1_455 S
Cu6    O47     1.810   1_455 S
