data_etc-D_O-Feoct
_audit_creation_date              2021-11-06
_audit_creation_method            'Materials Studio'
_symmetry_space_group_name_H-M    'P1'
_symmetry_Int_Tables_number       1
_symmetry_cell_setting            triclinic
loop_
_symmetry_equiv_pos_as_xyz
  x,y,z
_cell_length_a                    32.3644
_cell_length_b                    32.3643
_cell_length_c                    13.5423
_cell_angle_alpha                 90.0000
_cell_angle_beta                  90.0000
_cell_angle_gamma                 119.9999
loop_
_atom_site_label
_atom_site_type_symbol
_atom_site_fract_x
_atom_site_fract_y
_atom_site_fract_z
_atom_site_U_iso_or_equiv
_atom_site_adp_type
_atom_site_occupancy
Fe1    Fe    0.66667   0.33333   0.25000   0.00000  Uiso   1.00
Fe2    Fe    0.33333   0.66667   0.75000   0.00000  Uiso   1.00
Fe3    Fe    0.53093   0.06185   0.25000   0.00000  Uiso   1.00
Fe4    Fe    0.46908   0.53092   0.75000   0.00000  Uiso   1.00
Fe5    Fe    0.93815   0.46908   0.25000   0.00000  Uiso   1.00
Fe6    Fe    0.46908   0.93815   0.75000   0.00000  Uiso   1.00
Fe7    Fe    0.53093   0.46908   0.25000   0.00000  Uiso   1.00
Fe8    Fe    0.06185   0.53092   0.75000   0.00000  Uiso   1.00
C1     C     0.54850   0.02492   0.97358   0.00000  Uiso   1.00
C2     C     0.51400   0.99393   0.90642   0.00000  Uiso   1.00
C3     C     0.46582   0.96916   0.93255   0.00000  Uiso   1.00
C4     C     0.45151   0.97508   0.02642   0.00000  Uiso   1.00
C5     C     0.48600   0.00607   0.09358   0.00000  Uiso   1.00
C6     C     0.53418   0.03084   0.06746   0.00000  Uiso   1.00
H1     H     0.58583   0.04408   0.95312   0.00000  Uiso   1.00
O1     O     0.52654   0.98670   0.81284   0.00000  Uiso   1.00
O2     O     0.43303   0.93864   0.86339   0.00000  Uiso   1.00
H2     H     0.41418   0.95592   0.04689   0.00000  Uiso   1.00
O3     O     0.47346   0.01330   0.18717   0.00000  Uiso   1.00
O4     O     0.56697   0.06136   0.13662   0.00000  Uiso   1.00
C7     C     0.45151   0.47642   0.47358   0.00000  Uiso   1.00
C8     C     0.48600   0.47993   0.40642   0.00000  Uiso   1.00
C9     C     0.53418   0.50334   0.43254   0.00000  Uiso   1.00
C10    C     0.54850   0.52358   0.52642   0.00000  Uiso   1.00
C11    C     0.51400   0.52007   0.59358   0.00000  Uiso   1.00
C12    C     0.46582   0.49666   0.56745   0.00000  Uiso   1.00
H3     H     0.41418   0.45825   0.45311   0.00000  Uiso   1.00
O5     O     0.47346   0.46016   0.31283   0.00000  Uiso   1.00
O6     O     0.56697   0.50560   0.36338   0.00000  Uiso   1.00
H4     H     0.58583   0.54175   0.54688   0.00000  Uiso   1.00
O7     O     0.52654   0.53984   0.68716   0.00000  Uiso   1.00
O8     O     0.43303   0.49440   0.63661   0.00000  Uiso   1.00
C13    C     0.97508   0.52358   0.97358   0.00000  Uiso   1.00
C14    C     0.00607   0.52007   0.90642   0.00000  Uiso   1.00
C15    C     0.03084   0.49666   0.93254   0.00000  Uiso   1.00
C16    C     0.02492   0.47642   0.02642   0.00000  Uiso   1.00
C17    C     0.99393   0.47993   0.09358   0.00000  Uiso   1.00
C18    C     0.96916   0.50334   0.06745   0.00000  Uiso   1.00
H5     H     0.95592   0.54175   0.95311   0.00000  Uiso   1.00
O9     O     0.01330   0.53984   0.81283   0.00000  Uiso   1.00
O10    O     0.06137   0.49440   0.86338   0.00000  Uiso   1.00
H6     H     0.04408   0.45825   0.04689   0.00000  Uiso   1.00
O11    O     0.98670   0.46016   0.18716   0.00000  Uiso   1.00
O12    O     0.93864   0.50560   0.13662   0.00000  Uiso   1.00
C19    C     0.47642   0.02492   0.52642   0.00000  Uiso   1.00
C20    C     0.49666   0.03084   0.43255   0.00000  Uiso   1.00
C21    C     0.52008   0.00607   0.40642   0.00000  Uiso   1.00
C22    C     0.52358   0.97508   0.47358   0.00000  Uiso   1.00
C23    C     0.50334   0.96916   0.56746   0.00000  Uiso   1.00
C24    C     0.47993   0.99393   0.59358   0.00000  Uiso   1.00
H7     H     0.45825   0.04408   0.54689   0.00000  Uiso   1.00
O13    O     0.49440   0.06136   0.36339   0.00000  Uiso   1.00
O14    O     0.53984   0.01330   0.31284   0.00000  Uiso   1.00
H8     H     0.54175   0.95592   0.45312   0.00000  Uiso   1.00
O15    O     0.50561   0.93864   0.63662   0.00000  Uiso   1.00
O16    O     0.46016   0.98670   0.68717   0.00000  Uiso   1.00
C25    C     0.47642   0.45150   0.97358   0.00000  Uiso   1.00
C26    C     0.49666   0.46582   0.06745   0.00000  Uiso   1.00
C27    C     0.52008   0.51400   0.09358   0.00000  Uiso   1.00
C28    C     0.52358   0.54850   0.02642   0.00000  Uiso   1.00
C29    C     0.50334   0.53418   0.93254   0.00000  Uiso   1.00
C30    C     0.47993   0.48600   0.90642   0.00000  Uiso   1.00
H9     H     0.45825   0.41417   0.95311   0.00000  Uiso   1.00
O17    O     0.49440   0.43303   0.13661   0.00000  Uiso   1.00
O18    O     0.53984   0.52654   0.18716   0.00000  Uiso   1.00
H10    H     0.54175   0.58583   0.04688   0.00000  Uiso   1.00
O19    O     0.50561   0.56697   0.86338   0.00000  Uiso   1.00
O20    O     0.46016   0.47346   0.81283   0.00000  Uiso   1.00
C31    C     0.02492   0.54850   0.47358   0.00000  Uiso   1.00
C32    C     0.03084   0.53418   0.56745   0.00000  Uiso   1.00
C33    C     0.00607   0.48600   0.59358   0.00000  Uiso   1.00
C34    C     0.97508   0.45150   0.52642   0.00000  Uiso   1.00
C35    C     0.96916   0.46582   0.43254   0.00000  Uiso   1.00
C36    C     0.99393   0.51400   0.40642   0.00000  Uiso   1.00
H11    H     0.04408   0.58583   0.45311   0.00000  Uiso   1.00
O21    O     0.06137   0.56697   0.63662   0.00000  Uiso   1.00
O22    O     0.01330   0.47346   0.68716   0.00000  Uiso   1.00
H12    H     0.95593   0.41417   0.54689   0.00000  Uiso   1.00
O23    O     0.93864   0.43303   0.36338   0.00000  Uiso   1.00
O24    O     0.98670   0.52654   0.31283   0.00000  Uiso   1.00
C37    C     0.62876   0.19760   0.32514   0.00000  Uiso   1.00
C38    C     0.59315   0.15458   0.28489   0.00000  Uiso   1.00
C39    C     0.56144   0.15458   0.21511   0.00000  Uiso   1.00
C40    C     0.56885   0.19760   0.17486   0.00000  Uiso   1.00
C41    C     0.60650   0.24062   0.21046   0.00000  Uiso   1.00
C42    C     0.63413   0.24062   0.28954   0.00000  Uiso   1.00
H13    H     0.65183   0.19760   0.38301   0.00000  Uiso   1.00
O25    O     0.58805   0.11105   0.31304   0.00000  Uiso   1.00
O26    O     0.52300   0.11105   0.18696   0.00000  Uiso   1.00
H14    H     0.54577   0.19760   0.11699   0.00000  Uiso   1.00
O27    O     0.61730   0.28416   0.16932   0.00000  Uiso   1.00
O28    O     0.66686   0.28416   0.33068   0.00000  Uiso   1.00
C43    C     0.37125   0.56885   0.82514   0.00000  Uiso   1.00
C44    C     0.40685   0.56144   0.78489   0.00000  Uiso   1.00
C45    C     0.43857   0.59315   0.71511   0.00000  Uiso   1.00
C46    C     0.43116   0.62875   0.67486   0.00000  Uiso   1.00
C47    C     0.39351   0.63413   0.71046   0.00000  Uiso   1.00
C48    C     0.36588   0.60649   0.78954   0.00000  Uiso   1.00
H15    H     0.34817   0.54577   0.88301   0.00000  Uiso   1.00
O29    O     0.41195   0.52300   0.81304   0.00000  Uiso   1.00
O30    O     0.47700   0.58805   0.68696   0.00000  Uiso   1.00
H16    H     0.45423   0.65183   0.61699   0.00000  Uiso   1.00
O31    O     0.38271   0.66686   0.66932   0.00000  Uiso   1.00
O32    O     0.33314   0.61730   0.83068   0.00000  Uiso   1.00
C49    C     0.80240   0.37125   0.17486   0.00000  Uiso   1.00
C50    C     0.84542   0.40685   0.21511   0.00000  Uiso   1.00
C51    C     0.84542   0.43856   0.28489   0.00000  Uiso   1.00
C52    C     0.80240   0.43115   0.32514   0.00000  Uiso   1.00
C53    C     0.75938   0.39351   0.28954   0.00000  Uiso   1.00
C54    C     0.75938   0.36587   0.21046   0.00000  Uiso   1.00
H17    H     0.80240   0.34817   0.11699   0.00000  Uiso   1.00
O33    O     0.88895   0.41195   0.18696   0.00000  Uiso   1.00
O34    O     0.88895   0.47700   0.31304   0.00000  Uiso   1.00
H18    H     0.80240   0.45423   0.38301   0.00000  Uiso   1.00
O35    O     0.71585   0.38270   0.33068   0.00000  Uiso   1.00
O36    O     0.71585   0.33314   0.16932   0.00000  Uiso   1.00
C55    C     0.37125   0.80240   0.67486   0.00000  Uiso   1.00
C56    C     0.40685   0.84542   0.71511   0.00000  Uiso   1.00
C57    C     0.43857   0.84542   0.78489   0.00000  Uiso   1.00
C58    C     0.43116   0.80240   0.82514   0.00000  Uiso   1.00
C59    C     0.39351   0.75938   0.78954   0.00000  Uiso   1.00
C60    C     0.36588   0.75938   0.71046   0.00000  Uiso   1.00
H19    H     0.34817   0.80240   0.61699   0.00000  Uiso   1.00
O37    O     0.41195   0.88895   0.68696   0.00000  Uiso   1.00
O38    O     0.47700   0.88895   0.81304   0.00000  Uiso   1.00
H20    H     0.45423   0.80240   0.88301   0.00000  Uiso   1.00
O39    O     0.38271   0.71584   0.83068   0.00000  Uiso   1.00
O40    O     0.33314   0.71584   0.66932   0.00000  Uiso   1.00
C61    C     0.62876   0.43115   0.17486   0.00000  Uiso   1.00
C62    C     0.59315   0.43856   0.21511   0.00000  Uiso   1.00
C63    C     0.56144   0.40685   0.28489   0.00000  Uiso   1.00
C64    C     0.56885   0.37125   0.32514   0.00000  Uiso   1.00
C65    C     0.60650   0.36587   0.28954   0.00000  Uiso   1.00
C66    C     0.63413   0.39351   0.21046   0.00000  Uiso   1.00
H21    H     0.65183   0.45423   0.11699   0.00000  Uiso   1.00
O41    O     0.58805   0.47700   0.18696   0.00000  Uiso   1.00
O42    O     0.52300   0.41195   0.31304   0.00000  Uiso   1.00
H22    H     0.54577   0.34817   0.38301   0.00000  Uiso   1.00
O43    O     0.61730   0.33314   0.33068   0.00000  Uiso   1.00
O44    O     0.66686   0.38270   0.16932   0.00000  Uiso   1.00
C67    C     0.19760   0.56885   0.67486   0.00000  Uiso   1.00
C68    C     0.15458   0.56144   0.71511   0.00000  Uiso   1.00
C69    C     0.15458   0.59315   0.78489   0.00000  Uiso   1.00
C70    C     0.19760   0.62875   0.82514   0.00000  Uiso   1.00
C71    C     0.24062   0.63413   0.78954   0.00000  Uiso   1.00
C72    C     0.24062   0.60649   0.71046   0.00000  Uiso   1.00
H23    H     0.19760   0.54577   0.61699   0.00000  Uiso   1.00
O45    O     0.11105   0.52300   0.68696   0.00000  Uiso   1.00
O46    O     0.11105   0.58805   0.81304   0.00000  Uiso   1.00
H24    H     0.19760   0.65183   0.88301   0.00000  Uiso   1.00
O47    O     0.28416   0.66686   0.83068   0.00000  Uiso   1.00
O48    O     0.28416   0.61730   0.66932   0.00000  Uiso   1.00
loop_
_geom_bond_atom_site_label_1
_geom_bond_atom_site_label_2
_geom_bond_distance
_geom_bond_site_symmetry_2
_ccdc_geom_bond_type
Fe1    O27     1.933   .     S
Fe1    O28     1.933   .     S
Fe1    O35     1.933   .     S
Fe1    O36     1.933   .     S
Fe1    O43     1.933   .     S
Fe1    O44     1.933   .     S
Fe2    O31     1.933   .     S
Fe2    O32     1.933   .     S
Fe2    O39     1.933   .     S
Fe2    O40     1.933   .     S
Fe2    O47     1.933   .     S
Fe2    O48     1.933   .     S
Fe3    O3      1.931   .     S
Fe3    O4      1.933   .     S
Fe3    O13     1.933   .     S
Fe3    O14     1.931   .     S
Fe3    O25     1.934   .     S
Fe3    O26     1.934   .     S
Fe4    O7      1.931   .     S
Fe4    O8      1.933   .     S
Fe4    O19     1.933   .     S
Fe4    O20     1.931   .     S
Fe4    O29     1.934   .     S
Fe4    O30     1.934   .     S
Fe5    O11     1.931   .     S
Fe5    O12     1.933   .     S
Fe5    O23     1.933   .     S
Fe5    O24     1.931   .     S
Fe5    O33     1.934   .     S
Fe5    O34     1.934   .     S
Fe6    O1      1.931   .     S
Fe6    O2      1.933   .     S
Fe6    O15     1.933   .     S
Fe6    O16     1.931   .     S
Fe6    O37     1.934   .     S
Fe6    O38     1.934   .     S
Fe7    O5      1.931   .     S
Fe7    O6      1.933   .     S
Fe7    O17     1.933   .     S
Fe7    O18     1.931   .     S
Fe7    O41     1.934   .     S
Fe7    O42     1.934   .     S
Fe8    O9      1.931   .     S
Fe8    O10     1.933   .     S
Fe8    O21     1.933   .     S
Fe8    O22     1.931   .     S
Fe8    O45     1.934   .     S
Fe8    O46     1.934   .     S
C1     C2      1.400   1_545 A
C1     C6      1.399   1_556 A
C1     H1      1.083   .     S
C2     C1      1.400   1_565 A
C2     C3      1.396   .     A
C2     O1      1.386   .     S
C3     C4      1.399   1_556 A
C3     O2      1.390   .     S
C4     C3      1.399   1_554 A
C4     C5      1.400   1_565 A
C4     H2      1.083   .     S
C5     C4      1.400   1_545 A
C5     C6      1.396   .     A
C5     O3      1.386   .     S
C6     C1      1.399   1_554 A
C6     O4      1.390   .     S
C7     C8      1.400   .     A
C7     C12     1.399   .     A
C7     H3      1.083   .     S
C8     C9      1.396   .     A
C8     O5      1.386   .     S
C9     C10     1.399   .     A
C9     O6      1.390   .     S
C10    C11     1.400   .     A
C10    H4      1.083   .     S
C11    C12     1.396   .     A
C11    O7      1.386   .     S
C12    O8      1.390   .     S
C13    C14     1.400   1_655 A
C13    C18     1.399   1_556 A
C13    H5      1.083   .     S
C14    C13     1.400   1_455 A
C14    C15     1.396   .     A
C14    O9      1.386   .     S
C15    C16     1.399   1_556 A
C15    O10     1.390   .     S
C16    C15     1.399   1_554 A
C16    C17     1.400   1_455 A
C16    H6      1.083   .     S
C17    C16     1.400   1_655 A
C17    C18     1.396   .     A
C17    O11     1.386   .     S
C18    C13     1.399   1_554 A
C18    O12     1.390   .     S
C19    C20     1.399   .     A
C19    C24     1.400   1_545 A
C19    H7      1.083   .     S
C20    C21     1.396   .     A
C20    O13     1.390   .     S
C21    C22     1.400   1_545 A
C21    O14     1.386   .     S
C22    C21     1.400   1_565 A
C22    C23     1.399   .     A
C22    H8      1.083   .     S
C23    C24     1.396   .     A
C23    O15     1.390   .     S
C24    C19     1.400   1_565 A
C24    O16     1.386   .     S
C25    C26     1.399   1_556 A
C25    C30     1.400   .     A
C25    H9      1.083   .     S
C26    C25     1.399   1_554 A
C26    C27     1.396   .     A
C26    O17     1.390   .     S
C27    C28     1.400   .     A
C27    O18     1.386   .     S
C28    C29     1.399   1_554 A
C28    H10     1.083   .     S
C29    C28     1.399   1_556 A
C29    C30     1.396   .     A
C29    O19     1.390   .     S
C30    O20     1.386   .     S
C31    C32     1.399   .     A
C31    C36     1.400   1_455 A
C31    H11     1.083   .     S
C32    C33     1.396   .     A
C32    O21     1.390   .     S
C33    C34     1.400   1_455 A
C33    O22     1.386   .     S
C34    C33     1.400   1_655 A
C34    C35     1.399   .     A
C34    H12     1.083   .     S
C35    C36     1.396   .     A
C35    O23     1.390   .     S
C36    C31     1.400   1_655 A
C36    O24     1.386   .     S
C37    C38     1.400   .     A
C37    C42     1.400   .     A
C37    H13     1.082   .     S
C38    C39     1.395   .     A
C38    O25     1.387   .     S
C39    C40     1.400   .     A
C39    O26     1.387   .     S
C40    C41     1.400   .     A
C40    H14     1.082   .     S
C41    C42     1.395   .     A
C41    O27     1.388   .     S
C42    O28     1.388   .     S
C43    C44     1.400   .     A
C43    C48     1.400   .     A
C43    H15     1.082   .     S
C44    C45     1.395   .     A
C44    O29     1.387   .     S
C45    C46     1.400   .     A
C45    O30     1.387   .     S
C46    C47     1.400   .     A
C46    H16     1.082   .     S
C47    C48     1.395   .     A
C47    O31     1.388   .     S
C48    O32     1.388   .     S
C49    C50     1.400   .     A
C49    C54     1.400   .     A
C49    H17     1.082   .     S
C50    C51     1.395   .     A
C50    O33     1.387   .     S
C51    C52     1.400   .     A
C51    O34     1.387   .     S
C52    C53     1.400   .     A
C52    H18     1.082   .     S
C53    C54     1.395   .     A
C53    O35     1.388   .     S
C54    O36     1.388   .     S
C55    C56     1.400   .     A
C55    C60     1.400   .     A
C55    H19     1.082   .     S
C56    C57     1.395   .     A
C56    O37     1.387   .     S
C57    C58     1.400   .     A
C57    O38     1.387   .     S
C58    C59     1.400   .     A
C58    H20     1.082   .     S
C59    C60     1.395   .     A
C59    O39     1.388   .     S
C60    O40     1.388   .     S
C61    C62     1.400   .     A
C61    C66     1.400   .     A
C61    H21     1.082   .     S
C62    C63     1.395   .     A
C62    O41     1.387   .     S
C63    C64     1.400   .     A
C63    O42     1.387   .     S
C64    C65     1.400   .     A
C64    H22     1.082   .     S
C65    C66     1.395   .     A
C65    O43     1.388   .     S
C66    O44     1.388   .     S
C67    C68     1.400   .     A
C67    C72     1.400   .     A
C67    H23     1.082   .     S
C68    C69     1.395   .     A
C68    O45     1.387   .     S
C69    C70     1.400   .     A
C69    O46     1.387   .     S
C70    C71     1.400   .     A
C70    H24     1.082   .     S
C71    C72     1.395   .     A
C71    O47     1.388   .     S
C72    O48     1.388   .     S
