data_etc-B_O-Zntet
_audit_creation_date              2021-11-06
_audit_creation_method            'Materials Studio'
_symmetry_space_group_name_H-M    'P1'
_symmetry_Int_Tables_number       1
_symmetry_cell_setting            triclinic
loop_
_symmetry_equiv_pos_as_xyz
  x,y,z
_cell_length_a                    31.2157
_cell_length_b                    31.2157
_cell_length_c                    12.8355
_cell_angle_alpha                 90.0000
_cell_angle_beta                  90.0000
_cell_angle_gamma                 120.0004
loop_
_atom_site_label
_atom_site_type_symbol
_atom_site_fract_x
_atom_site_fract_y
_atom_site_fract_z
_atom_site_U_iso_or_equiv
_atom_site_adp_type
_atom_site_occupancy
C1     C     0.62154   0.33317   0.25001   0.00000  Uiso   1.00
C2     C     0.62153   0.28836   0.25001   0.00000  Uiso   1.00
C3     C     0.66682   0.28836   0.25001   0.00000  Uiso   1.00
C4     C     0.71164   0.33317   0.25001   0.00000  Uiso   1.00
C5     C     0.71164   0.37846   0.25001   0.00000  Uiso   1.00
C6     C     0.66683   0.37846   0.25001   0.00000  Uiso   1.00
O1     O     0.57710   0.33372   0.25001   0.00000  Uiso   1.00
O2     O     0.57709   0.24338   0.25001   0.00000  Uiso   1.00
O3     O     0.66628   0.24337   0.25001   0.00000  Uiso   1.00
O4     O     0.75662   0.33371   0.25001   0.00000  Uiso   1.00
O5     O     0.75662   0.42290   0.25001   0.00000  Uiso   1.00
O6     O     0.66628   0.42290   0.25001   0.00000  Uiso   1.00
C7     C     0.28836   0.62153   0.75001   0.00000  Uiso   1.00
C8     C     0.33318   0.62153   0.75001   0.00000  Uiso   1.00
C9     C     0.37847   0.66682   0.75001   0.00000  Uiso   1.00
C10    C     0.37846   0.71164   0.75001   0.00000  Uiso   1.00
C11    C     0.33317   0.71164   0.75001   0.00000  Uiso   1.00
C12    C     0.28836   0.66682   0.75001   0.00000  Uiso   1.00
O7     O     0.24338   0.57709   0.75001   0.00000  Uiso   1.00
O8     O     0.33372   0.57709   0.75001   0.00000  Uiso   1.00
O9     O     0.42291   0.66628   0.75001   0.00000  Uiso   1.00
O10    O     0.42290   0.75662   0.75001   0.00000  Uiso   1.00
O11    O     0.33372   0.75662   0.75000   0.00000  Uiso   1.00
O12    O     0.24338   0.66628   0.75001   0.00000  Uiso   1.00
C13    C     0.51239   0.02477   0.19554   0.00000  Uiso   1.00
C14    C     0.51238   0.02476   0.30442   0.00000  Uiso   1.00
C15    C     0.53439   0.06878   0.35843   0.00000  Uiso   1.00
C16    C     0.55703   0.11405   0.30520   0.00000  Uiso   1.00
C17    C     0.55703   0.11406   0.19478   0.00000  Uiso   1.00
C18    C     0.53439   0.06879   0.14154   0.00000  Uiso   1.00
O13    O     0.49109   0.98218   0.13617   0.00000  Uiso   1.00
O14    O     0.49109   0.98217   0.36377   0.00000  Uiso   1.00
O15    O     0.53254   0.06508   0.46574   0.00000  Uiso   1.00
O16    O     0.57945   0.15891   0.35890   0.00000  Uiso   1.00
O17    O     0.57946   0.15892   0.14110   0.00000  Uiso   1.00
O18    O     0.53254   0.06509   0.03422   0.00000  Uiso   1.00
C19    C     0.48763   0.51240   0.80444   0.00000  Uiso   1.00
C20    C     0.48763   0.51240   0.69556   0.00000  Uiso   1.00
C21    C     0.46562   0.53441   0.64156   0.00000  Uiso   1.00
C22    C     0.44298   0.55704   0.69480   0.00000  Uiso   1.00
C23    C     0.44298   0.55703   0.80521   0.00000  Uiso   1.00
C24    C     0.46562   0.53440   0.85845   0.00000  Uiso   1.00
O19    O     0.50893   0.49111   0.86379   0.00000  Uiso   1.00
O20    O     0.50893   0.49111   0.63619   0.00000  Uiso   1.00
O21    O     0.46746   0.53256   0.53424   0.00000  Uiso   1.00
O22    O     0.42055   0.57946   0.64111   0.00000  Uiso   1.00
O23    O     0.42055   0.57946   0.85891   0.00000  Uiso   1.00
O24    O     0.46747   0.53256   0.96576   0.00000  Uiso   1.00
C25    C     0.88594   0.44296   0.30522   0.00000  Uiso   1.00
C26    C     0.93121   0.46560   0.35845   0.00000  Uiso   1.00
C27    C     0.97523   0.48760   0.30445   0.00000  Uiso   1.00
C28    C     0.97523   0.48761   0.19557   0.00000  Uiso   1.00
C29    C     0.93121   0.46560   0.14156   0.00000  Uiso   1.00
C30    C     0.88594   0.44296   0.19480   0.00000  Uiso   1.00
O25    O     0.84108   0.42053   0.35891   0.00000  Uiso   1.00
O26    O     0.93491   0.46744   0.46577   0.00000  Uiso   1.00
O27    O     0.01782   0.50890   0.36381   0.00000  Uiso   1.00
O28    O     0.01782   0.50890   0.13621   0.00000  Uiso   1.00
O29    O     0.93491   0.46744   0.03425   0.00000  Uiso   1.00
O30    O     0.84108   0.42054   0.14111   0.00000  Uiso   1.00
C31    C     0.48762   0.97523   0.69554   0.00000  Uiso   1.00
C32    C     0.48762   0.97523   0.80442   0.00000  Uiso   1.00
C33    C     0.46561   0.93121   0.85843   0.00000  Uiso   1.00
C34    C     0.44297   0.88594   0.80520   0.00000  Uiso   1.00
C35    C     0.44297   0.88594   0.69478   0.00000  Uiso   1.00
C36    C     0.46560   0.93120   0.64154   0.00000  Uiso   1.00
O31    O     0.50891   0.01782   0.63617   0.00000  Uiso   1.00
O32    O     0.50892   0.01782   0.86377   0.00000  Uiso   1.00
O33    O     0.46745   0.93491   0.96574   0.00000  Uiso   1.00
O34    O     0.42054   0.84108   0.85889   0.00000  Uiso   1.00
O35    O     0.42054   0.84108   0.64110   0.00000  Uiso   1.00
O36    O     0.46745   0.93490   0.53422   0.00000  Uiso   1.00
C37    C     0.51240   0.48763   0.30444   0.00000  Uiso   1.00
C38    C     0.51240   0.48763   0.19556   0.00000  Uiso   1.00
C39    C     0.53441   0.46562   0.14156   0.00000  Uiso   1.00
C40    C     0.55704   0.44298   0.19480   0.00000  Uiso   1.00
C41    C     0.55704   0.44298   0.30521   0.00000  Uiso   1.00
C42    C     0.53441   0.46562   0.35845   0.00000  Uiso   1.00
O37    O     0.49111   0.50893   0.36379   0.00000  Uiso   1.00
O38    O     0.49111   0.50893   0.13619   0.00000  Uiso   1.00
O39    O     0.53256   0.46746   0.03424   0.00000  Uiso   1.00
O40    O     0.57946   0.42054   0.14111   0.00000  Uiso   1.00
O41    O     0.57946   0.42054   0.35891   0.00000  Uiso   1.00
O42    O     0.53256   0.46747   0.46576   0.00000  Uiso   1.00
C43    C     0.06879   0.53438   0.64157   0.00000  Uiso   1.00
C44    C     0.11406   0.55702   0.69480   0.00000  Uiso   1.00
C45    C     0.11406   0.55702   0.80522   0.00000  Uiso   1.00
C46    C     0.06879   0.53438   0.85846   0.00000  Uiso   1.00
C47    C     0.02477   0.51237   0.80445   0.00000  Uiso   1.00
C48    C     0.02477   0.51237   0.69557   0.00000  Uiso   1.00
O43    O     0.06509   0.53253   0.53425   0.00000  Uiso   1.00
O44    O     0.15892   0.57945   0.64111   0.00000  Uiso   1.00
O45    O     0.15892   0.57945   0.85891   0.00000  Uiso   1.00
O46    O     0.06509   0.53253   0.96577   0.00000  Uiso   1.00
O47    O     0.98218   0.49108   0.86381   0.00000  Uiso   1.00
O48    O     0.98218   0.49107   0.63621   0.00000  Uiso   1.00
Cu1    Cu    0.50000   1.00000  -0.00002   0.00000  Uiso   1.00
Cu2    Cu    0.50001   0.50002   0.49999   0.00000  Uiso   1.00
Cu3    Cu   -0.00000   0.49998   0.00001   0.00000  Uiso   1.00
Cu4    Cu    0.50000   0.99999   0.49997   0.00000  Uiso   1.00
Cu5    Cu    0.50002   0.50002   0.99999   0.00000  Uiso   1.00
Cu6    Cu   -0.00000   0.49999   0.50001   0.00000  Uiso   1.00
Zn1    Zn    0.60056   0.20112   0.25000   0.00000  Uiso   1.00
Zn2    Zn    0.39944   0.60056   0.75001   0.00000  Uiso   1.00
Zn3    Zn    0.79888   0.39943   0.25001   0.00000  Uiso   1.00
Zn4    Zn    0.39944   0.79887   0.75000   0.00000  Uiso   1.00
Zn5    Zn    0.60057   0.39944   0.25001   0.00000  Uiso   1.00
Zn6    Zn    0.20112   0.60055   0.75001   0.00000  Uiso   1.00
loop_
_geom_bond_atom_site_label_1
_geom_bond_atom_site_label_2
_geom_bond_distance
_geom_bond_site_symmetry_2
_ccdc_geom_bond_type
C1     C2      1.399   .     A
C1     C6      1.414   .     A
C1     O1      1.396   .     S
C2     C3      1.414   .     A
C2     O2      1.396   .     S
C3     C4      1.399   .     A
C3     O3      1.396   .     S
C4     C5      1.414   .     A
C4     O4      1.396   .     S
C5     C6      1.399   .     A
C5     O5      1.396   .     S
C6     O6      1.396   .     S
O1     Zn5     1.801   .     S
O2     Zn1     1.801   .     S
O3     Zn1     1.801   .     S
O4     Zn3     1.801   .     S
O5     Zn3     1.801   .     S
O6     Zn5     1.801   .     S
C7     C8      1.399   .     A
C7     C12     1.414   .     A
C7     O7      1.396   .     S
C8     C9      1.414   .     A
C8     O8      1.396   .     S
C9     C10     1.399   .     A
C9     O9      1.396   .     S
C10    C11     1.414   .     A
C10    O10     1.396   .     S
C11    C12     1.399   .     A
C11    O11     1.396   .     S
C12    O12     1.396   .     S
O7     Zn6     1.801   .     S
O8     Zn2     1.801   .     S
O9     Zn2     1.801   .     S
O10    Zn4     1.801   .     S
O11    Zn4     1.801   .     S
O12    Zn6     1.801   .     S
C13    C14     1.398   .     A
C13    C18     1.377   .     A
C13    O13     1.381   1_545 S
C14    C15     1.377   .     A
C14    O14     1.381   1_545 S
C15    C16     1.402   .     A
C15    O15     1.381   .     S
C16    C17     1.417   .     A
C16    O16     1.395   .     S
C17    C18     1.402   .     A
C17    O17     1.395   .     S
C18    O18     1.381   .     S
O13    C13     1.381   1_565 S
O13    Cu1     1.813   .     S
O14    C14     1.381   1_565 S
O14    Cu4     1.813   .     S
O15    Cu4     1.814   1_545 S
O16    Zn1     1.804   .     S
O17    Zn1     1.804   .     S
O18    Cu1     1.814   1_545 S
C19    C20     1.398   .     A
C19    C24     1.377   .     A
C19    O19     1.381   .     S
C20    C21     1.377   .     A
C20    O20     1.381   .     S
C21    C22     1.402   .     A
C21    O21     1.381   .     S
C22    C23     1.417   .     A
C22    O22     1.395   .     S
C23    C24     1.402   .     A
C23    O23     1.395   .     S
C24    O24     1.381   .     S
O19    Cu5     1.813   .     S
O20    Cu2     1.813   .     S
O21    Cu2     1.814   .     S
O22    Zn2     1.804   .     S
O23    Zn2     1.804   .     S
O24    Cu5     1.814   .     S
C25    C26     1.402   .     A
C25    C30     1.417   .     A
C25    O25     1.395   .     S
C26    C27     1.377   .     A
C26    O26     1.381   .     S
C27    C28     1.398   .     A
C27    O27     1.381   1_655 S
C28    C29     1.377   .     A
C28    O28     1.381   1_655 S
C29    C30     1.402   .     A
C29    O29     1.381   .     S
C30    O30     1.395   .     S
O25    Zn3     1.804   .     S
O26    Cu6     1.814   1_655 S
O27    C27     1.381   1_455 S
O27    Cu6     1.813   .     S
O28    C28     1.381   1_455 S
O28    Cu3     1.813   .     S
O29    Cu3     1.814   1_655 S
O30    Zn3     1.804   .     S
C31    C32     1.398   .     A
C31    C36     1.377   .     A
C31    O31     1.381   1_565 S
C32    C33     1.377   .     A
C32    O32     1.381   1_565 S
C33    C34     1.402   .     A
C33    O33     1.381   .     S
C34    C35     1.417   .     A
C34    O34     1.395   .     S
C35    C36     1.402   .     A
C35    O35     1.395   .     S
C36    O36     1.381   .     S
O31    C31     1.381   1_545 S
O31    Cu4     1.813   1_545 S
O32    C32     1.381   1_545 S
O32    Cu1     1.813   1_546 S
O33    Cu1     1.814   1_556 S
O34    Zn4     1.804   .     S
O35    Zn4     1.804   .     S
O36    Cu4     1.814   .     S
C37    C38     1.398   .     A
C37    C42     1.377   .     A
C37    O37     1.381   .     S
C38    C39     1.377   .     A
C38    O38     1.381   .     S
C39    C40     1.402   .     A
C39    O39     1.381   .     S
C40    C41     1.417   .     A
C40    O40     1.395   .     S
C41    C42     1.402   .     A
C41    O41     1.395   .     S
C42    O42     1.381   .     S
O37    Cu2     1.813   .     S
O38    Cu5     1.813   1_554 S
O39    Cu5     1.814   1_554 S
O40    Zn5     1.804   .     S
O41    Zn5     1.804   .     S
O42    Cu2     1.814   .     S
C43    C44     1.402   .     A
C43    C48     1.377   .     A
C43    O43     1.381   .     S
C44    C45     1.417   .     A
C44    O44     1.395   .     S
C45    C46     1.402   .     A
C45    O45     1.395   .     S
C46    C47     1.377   .     A
C46    O46     1.381   .     S
C47    C48     1.398   .     A
C47    O47     1.381   1_455 S
C48    O48     1.381   1_455 S
O43    Cu6     1.814   .     S
O44    Zn6     1.804   .     S
O45    Zn6     1.804   .     S
O46    Cu3     1.814   1_556 S
O47    C47     1.381   1_655 S
O47    Cu3     1.813   1_656 S
O48    C48     1.381   1_655 S
O48    Cu6     1.813   1_655 S
Cu1    O18     1.814   1_565 S
Cu1    O33     1.814   1_554 S
Cu1    O32     1.813   1_564 S
Cu3    O29     1.814   1_455 S
Cu3    O46     1.814   1_554 S
Cu3    O47     1.813   1_454 S
Cu4    O31     1.813   1_565 S
Cu4    O15     1.814   1_565 S
Cu5    O39     1.814   1_556 S
Cu5    O38     1.813   1_556 S
Cu6    O26     1.814   1_455 S
Cu6    O48     1.813   1_455 S
