data_etd_Feoct_DHBQ
_audit_creation_date              2023-08-06
_audit_creation_method            'Materials Studio'
_symmetry_space_group_name_H-M    'P1'
_symmetry_Int_Tables_number       1
_symmetry_cell_setting            triclinic
loop_
_symmetry_equiv_pos_as_xyz
  x,y,z
_cell_length_a                    29.3634
_cell_length_b                    29.3635
_cell_length_c                    20.9640
_cell_angle_alpha                 90.0000
_cell_angle_beta                  90.0000
_cell_angle_gamma                 120.0030
loop_
_atom_site_label
_atom_site_type_symbol
_atom_site_fract_x
_atom_site_fract_y
_atom_site_fract_z
_atom_site_U_iso_or_equiv
_atom_site_adp_type
_atom_site_occupancy
Fe1    Fe    0.47524   0.11245   0.11348   0.00000  Uiso   1.00
Fe2    Fe    0.36275   0.47520   0.28012   0.00000  Uiso   1.00
Fe3    Fe    0.88756   0.36279   0.44681   0.00000  Uiso   1.00
Fe4    Fe    0.52479   0.88754   0.61346   0.00000  Uiso   1.00
Fe5    Fe    0.63721   0.52477   0.78014   0.00000  Uiso   1.00
Fe6    Fe    0.11245   0.63724   0.94679   0.00000  Uiso   1.00
Fe7    Fe    0.88754   0.52480   0.71987   0.00000  Uiso   1.00
Fe8    Fe    0.36279   0.88755   0.88653   0.00000  Uiso   1.00
Fe9    Fe    0.47521   0.36275   0.05321   0.00000  Uiso   1.00
Fe10   Fe    0.11245   0.47523   0.21985   0.00000  Uiso   1.00
Fe11   Fe    0.63725   0.11246   0.38655   0.00000  Uiso   1.00
Fe12   Fe    0.52476   0.63721   0.55319   0.00000  Uiso   1.00
C1     C     0.59155   0.10727   0.20562   0.00000  Uiso   1.00
C2     C     0.60061   0.11063   0.27159   0.00000  Uiso   1.00
C3     C     0.55968   0.10512   0.31654   0.00000  Uiso   1.00
C4     C     0.51575   0.10726   0.29440   0.00000  Uiso   1.00
C5     C     0.51005   0.11062   0.22844   0.00000  Uiso   1.00
C6     C     0.54548   0.10513   0.18349   0.00000  Uiso   1.00
H1     H     0.61997   0.10750   0.17253   0.00000  Uiso   1.00
O1     O     0.64318   0.11769   0.29638   0.00000  Uiso   1.00
O2     O     0.56797   0.10058   0.37524   0.00000  Uiso   1.00
H2     H     0.48754   0.10747   0.32749   0.00000  Uiso   1.00
O3     O     0.47453   0.11767   0.20364   0.00000  Uiso   1.00
O4     O     0.53264   0.10059   0.12478   0.00000  Uiso   1.00
C7     C     0.40845   0.51572   0.46105   0.00000  Uiso   1.00
C8     C     0.39939   0.51002   0.39508   0.00000  Uiso   1.00
C9     C     0.44032   0.54544   0.35013   0.00000  Uiso   1.00
C10    C     0.48425   0.59150   0.37227   0.00000  Uiso   1.00
C11    C     0.48995   0.60057   0.43823   0.00000  Uiso   1.00
C12    C     0.45452   0.55964   0.48318   0.00000  Uiso   1.00
H3     H     0.38002   0.48751   0.49413   0.00000  Uiso   1.00
O5     O     0.35681   0.47450   0.37028   0.00000  Uiso   1.00
O6     O     0.43202   0.53260   0.29143   0.00000  Uiso   1.00
H4     H     0.51246   0.61993   0.33918   0.00000  Uiso   1.00
O7     O     0.52547   0.64314   0.46303   0.00000  Uiso   1.00
O8     O     0.46736   0.56794   0.54188   0.00000  Uiso   1.00
C13    C     0.89273   0.48428   0.53895   0.00000  Uiso   1.00
C14    C     0.89488   0.44036   0.51682   0.00000  Uiso   1.00
C15    C     0.88939   0.39944   0.56177   0.00000  Uiso   1.00
C16    C     0.89274   0.40850   0.62773   0.00000  Uiso   1.00
C17    C     0.89488   0.45456   0.64987   0.00000  Uiso   1.00
C18    C     0.88937   0.48999   0.60492   0.00000  Uiso   1.00
H5     H     0.89251   0.51249   0.50586   0.00000  Uiso   1.00
O9     O     0.89942   0.43206   0.45811   0.00000  Uiso   1.00
O10    O     0.88234   0.35687   0.53697   0.00000  Uiso   1.00
H6     H     0.89253   0.38008   0.66082   0.00000  Uiso   1.00
O11    O     0.89941   0.46740   0.70857   0.00000  Uiso   1.00
O12    O     0.88231   0.52551   0.62971   0.00000  Uiso   1.00
C19    C     0.48428   0.89273   0.79439   0.00000  Uiso   1.00
C20    C     0.44036   0.89488   0.81652   0.00000  Uiso   1.00
C21    C     0.39943   0.88938   0.77157   0.00000  Uiso   1.00
C22    C     0.40849   0.89274   0.70561   0.00000  Uiso   1.00
C23    C     0.45455   0.89487   0.68347   0.00000  Uiso   1.00
C24    C     0.48998   0.88937   0.72842   0.00000  Uiso   1.00
H7     H     0.51248   0.89251   0.82747   0.00000  Uiso   1.00
O13    O     0.43206   0.89942   0.87522   0.00000  Uiso   1.00
O14    O     0.35686   0.88233   0.79637   0.00000  Uiso   1.00
H8     H     0.38007   0.89252   0.67252   0.00000  Uiso   1.00
O15    O     0.46740   0.89941   0.62477   0.00000  Uiso   1.00
O16    O     0.52550   0.88231   0.70362   0.00000  Uiso   1.00
C25    C     0.59151   0.48425   0.96106   0.00000  Uiso   1.00
C26    C     0.60057   0.48996   0.89510   0.00000  Uiso   1.00
C27    C     0.55964   0.45452   0.85015   0.00000  Uiso   1.00
C28    C     0.51572   0.40846   0.87228   0.00000  Uiso   1.00
C29    C     0.51002   0.39939   0.93825   0.00000  Uiso   1.00
C30    C     0.54545   0.44033   0.98320   0.00000  Uiso   1.00
H9     H     0.61993   0.51246   0.99415   0.00000  Uiso   1.00
O17    O     0.64314   0.52548   0.87030   0.00000  Uiso   1.00
O18    O     0.56794   0.46737   0.79145   0.00000  Uiso   1.00
H10    H     0.48752   0.38003   0.83920   0.00000  Uiso   1.00
O19    O     0.47450   0.35682   0.96305   0.00000  Uiso   1.00
O20    O     0.53261   0.43202   0.04190   0.00000  Uiso   1.00
C31    C     0.10725   0.51574   0.03893   0.00000  Uiso   1.00
C32    C     0.11061   0.51004   0.10490   0.00000  Uiso   1.00
C33    C     0.10513   0.54547   0.14985   0.00000  Uiso   1.00
C34    C     0.10727   0.59154   0.12772   0.00000  Uiso   1.00
C35    C     0.11062   0.60060   0.06175   0.00000  Uiso   1.00
C36    C     0.10512   0.55967   0.01680   0.00000  Uiso   1.00
H11    H     0.10746   0.48753   0.00584   0.00000  Uiso   1.00
O21    O     0.11766   0.47452   0.12969   0.00000  Uiso   1.00
O22    O     0.10059   0.53263   0.20855   0.00000  Uiso   1.00
H12    H     0.10749   0.61996   0.16081   0.00000  Uiso   1.00
O23    O     0.11768   0.64317   0.03696   0.00000  Uiso   1.00
O24    O     0.10057   0.56797   0.95810   0.00000  Uiso   1.00
C37    C     0.52774   0.26386   0.08335   0.00000  Uiso   1.00
C38    C     0.49993   0.28972   0.07183   0.00000  Uiso   1.00
C39    C     0.44205   0.26177   0.07238   0.00000  Uiso   1.00
C40    C     0.41362   0.20679   0.08335   0.00000  Uiso   1.00
C41    C     0.44206   0.18025   0.09431   0.00000  Uiso   1.00
C42    C     0.49994   0.21021   0.09487   0.00000  Uiso   1.00
H13    H     0.57034   0.28517   0.08335   0.00000  Uiso   1.00
O25    O     0.52309   0.33850   0.06091   0.00000  Uiso   1.00
O26    O     0.42115   0.29053   0.06260   0.00000  Uiso   1.00
H14    H     0.37106   0.18550   0.08334   0.00000  Uiso   1.00
O27    O     0.42117   0.13059   0.10409   0.00000  Uiso   1.00
O28    O     0.52311   0.18459   0.10579   0.00000  Uiso   1.00
C43    C     0.20679   0.41361   0.24998   0.00000  Uiso   1.00
C44    C     0.26177   0.44204   0.26095   0.00000  Uiso   1.00
C45    C     0.28972   0.49993   0.26150   0.00000  Uiso   1.00
C46    C     0.26386   0.52773   0.24997   0.00000  Uiso   1.00
C47    C     0.21020   0.49993   0.23846   0.00000  Uiso   1.00
C48    C     0.18025   0.44205   0.23901   0.00000  Uiso   1.00
H15    H     0.18550   0.37105   0.24998   0.00000  Uiso   1.00
O29    O     0.29053   0.42115   0.27072   0.00000  Uiso   1.00
O30    O     0.33850   0.52308   0.27242   0.00000  Uiso   1.00
H16    H     0.28517   0.57034   0.24997   0.00000  Uiso   1.00
O31    O     0.18459   0.52310   0.22754   0.00000  Uiso   1.00
O32    O     0.13059   0.42116   0.22924   0.00000  Uiso   1.00
C49    C     0.73614   0.26388   0.41669   0.00000  Uiso   1.00
C50    C     0.71028   0.21022   0.40517   0.00000  Uiso   1.00
C51    C     0.73823   0.18028   0.40572   0.00000  Uiso   1.00
C52    C     0.79321   0.20683   0.41668   0.00000  Uiso   1.00
C53    C     0.81975   0.26181   0.42765   0.00000  Uiso   1.00
C54    C     0.78980   0.28974   0.42821   0.00000  Uiso   1.00
H17    H     0.71483   0.28518   0.41669   0.00000  Uiso   1.00
O33    O     0.66150   0.18460   0.39425   0.00000  Uiso   1.00
O34    O     0.70946   0.13062   0.39594   0.00000  Uiso   1.00
H18    H     0.81449   0.18556   0.41668   0.00000  Uiso   1.00
O35    O     0.86941   0.29058   0.43742   0.00000  Uiso   1.00
O36    O     0.81541   0.33852   0.43912   0.00000  Uiso   1.00
C55    C     0.47227   0.73612   0.58332   0.00000  Uiso   1.00
C56    C     0.50007   0.78978   0.59484   0.00000  Uiso   1.00
C57    C     0.55795   0.81972   0.59429   0.00000  Uiso   1.00
C58    C     0.58638   0.79317   0.58332   0.00000  Uiso   1.00
C59    C     0.55794   0.73820   0.57236   0.00000  Uiso   1.00
C60    C     0.50006   0.71026   0.57180   0.00000  Uiso   1.00
H19    H     0.42966   0.71482   0.58332   0.00000  Uiso   1.00
O37    O     0.47691   0.81540   0.60576   0.00000  Uiso   1.00
O38    O     0.57885   0.86938   0.60407   0.00000  Uiso   1.00
H20    H     0.62894   0.81445   0.58333   0.00000  Uiso   1.00
O39    O     0.57883   0.70943   0.56258   0.00000  Uiso   1.00
O40    O     0.47689   0.66148   0.56088   0.00000  Uiso   1.00
C61    C     0.79317   0.58639   0.75000   0.00000  Uiso   1.00
C62    C     0.81972   0.55796   0.73903   0.00000  Uiso   1.00
C63    C     0.78978   0.50008   0.73848   0.00000  Uiso   1.00
C64    C     0.73612   0.47228   0.75001   0.00000  Uiso   1.00
C65    C     0.71026   0.50007   0.76153   0.00000  Uiso   1.00
C66    C     0.73820   0.55795   0.76097   0.00000  Uiso   1.00
H21    H     0.81445   0.62895   0.75000   0.00000  Uiso   1.00
O41    O     0.86938   0.57886   0.72926   0.00000  Uiso   1.00
O42    O     0.81540   0.47692   0.72757   0.00000  Uiso   1.00
H22    H     0.71482   0.42967   0.75001   0.00000  Uiso   1.00
O43    O     0.66148   0.47690   0.77245   0.00000  Uiso   1.00
O44    O     0.70943   0.57884   0.77074   0.00000  Uiso   1.00
C67    C     0.26387   0.73614   0.91666   0.00000  Uiso   1.00
C68    C     0.28974   0.78980   0.90514   0.00000  Uiso   1.00
C69    C     0.26181   0.81974   0.90569   0.00000  Uiso   1.00
C70    C     0.20683   0.79320   0.91666   0.00000  Uiso   1.00
C71    C     0.18028   0.73823   0.92763   0.00000  Uiso   1.00
C72    C     0.21022   0.71028   0.92818   0.00000  Uiso   1.00
H23    H     0.28517   0.71483   0.91666   0.00000  Uiso   1.00
O45    O     0.33852   0.81541   0.89422   0.00000  Uiso   1.00
O46    O     0.29058   0.86940   0.89592   0.00000  Uiso   1.00
H24    H     0.18555   0.81449   0.91667   0.00000  Uiso   1.00
O47    O     0.13062   0.70946   0.93740   0.00000  Uiso   1.00
O48    O     0.18459   0.66150   0.93909   0.00000  Uiso   1.00
C73    C     0.43187   0.03630   0.94663   0.00000  Uiso   1.00
C74    C     0.40291   0.98181   0.93667   0.00000  Uiso   1.00
C75    C     0.38920   0.94516   0.99058   0.00000  Uiso   1.00
C76    C     0.39557   0.96370   0.05338   0.00000  Uiso   1.00
C77    C     0.42109   0.01819   0.06333   0.00000  Uiso   1.00
C78    C     0.44404   0.05485   0.00943   0.00000  Uiso   1.00
H25    H     0.44552   0.06332   0.90671   0.00000  Uiso   1.00
O49    O     0.38868   0.96097   0.88182   0.00000  Uiso   1.00
O50    O     0.37103   0.89694   0.97628   0.00000  Uiso   1.00
H26    H     0.38220   0.93668   0.09330   0.00000  Uiso   1.00
O51    O     0.42771   0.03903   0.11819   0.00000  Uiso   1.00
O52    O     0.47409   0.10306   0.02373   0.00000  Uiso   1.00
C79    C     0.43182   0.39552   0.22005   0.00000  Uiso   1.00
C80    C     0.40285   0.42105   0.22999   0.00000  Uiso   1.00
C81    C     0.38915   0.44399   0.17608   0.00000  Uiso   1.00
C82    C     0.39553   0.43181   0.11328   0.00000  Uiso   1.00
C83    C     0.42105   0.40285   0.10334   0.00000  Uiso   1.00
C84    C     0.44400   0.38915   0.15725   0.00000  Uiso   1.00
H27    H     0.44546   0.38215   0.25997   0.00000  Uiso   1.00
O53    O     0.38862   0.42766   0.28485   0.00000  Uiso   1.00
O54    O     0.37099   0.47404   0.19037   0.00000  Uiso   1.00
H28    H     0.38216   0.44546   0.07336   0.00000  Uiso   1.00
O55    O     0.42767   0.38862   0.04848   0.00000  Uiso   1.00
O56    O     0.47405   0.37099   0.14296   0.00000  Uiso   1.00
C85    C     0.96370   0.39556   0.27996   0.00000  Uiso   1.00
C86    C     0.94516   0.38919   0.34276   0.00000  Uiso   1.00
C87    C     0.98181   0.40290   0.39666   0.00000  Uiso   1.00
C88    C     0.03631   0.43187   0.38671   0.00000  Uiso   1.00
C89    C     0.05485   0.44403   0.32390   0.00000  Uiso   1.00
C90    C     0.01819   0.42109   0.27000   0.00000  Uiso   1.00
H29    H     0.93668   0.38219   0.24004   0.00000  Uiso   1.00
O57    O     0.89695   0.37103   0.35706   0.00000  Uiso   1.00
O58    O     0.96097   0.38868   0.45152   0.00000  Uiso   1.00
H30    H     0.06333   0.44551   0.42663   0.00000  Uiso   1.00
O59    O     0.10306   0.47408   0.30960   0.00000  Uiso   1.00
O60    O     0.03903   0.42770   0.21514   0.00000  Uiso   1.00
C91    C     0.56818   0.96370   0.44662   0.00000  Uiso   1.00
C92    C     0.55600   0.94515   0.50942   0.00000  Uiso   1.00
C93    C     0.57895   0.98180   0.56333   0.00000  Uiso   1.00
C94    C     0.60447   0.03629   0.55339   0.00000  Uiso   1.00
C95    C     0.61085   0.05484   0.49058   0.00000  Uiso   1.00
C96    C     0.59715   0.01820   0.43668   0.00000  Uiso   1.00
H31    H     0.55453   0.93669   0.40670   0.00000  Uiso   1.00
O61    O     0.52595   0.89694   0.52371   0.00000  Uiso   1.00
O62    O     0.57233   0.96095   0.61818   0.00000  Uiso   1.00
H32    H     0.61784   0.06331   0.59331   0.00000  Uiso   1.00
O63    O     0.62900   0.10306   0.47629   0.00000  Uiso   1.00
O64    O     0.61138   0.03905   0.38182   0.00000  Uiso   1.00
C97    C     0.56813   0.60444   0.72004   0.00000  Uiso   1.00
C98    C     0.55596   0.61081   0.65724   0.00000  Uiso   1.00
C99    C     0.57891   0.59710   0.60333   0.00000  Uiso   1.00
C100   C     0.60443   0.56814   0.61329   0.00000  Uiso   1.00
C101   C     0.61081   0.55597   0.67609   0.00000  Uiso   1.00
C102   C     0.59710   0.57891   0.73000   0.00000  Uiso   1.00
H33    H     0.55449   0.61781   0.75996   0.00000  Uiso   1.00
O65    O     0.52591   0.62897   0.64294   0.00000  Uiso   1.00
O66    O     0.57229   0.61133   0.54848   0.00000  Uiso   1.00
H34    H     0.61780   0.55449   0.57337   0.00000  Uiso   1.00
O67    O     0.62897   0.52592   0.69039   0.00000  Uiso   1.00
O68    O     0.61133   0.57230   0.78485   0.00000  Uiso   1.00
C103   C     0.03629   0.60448   0.77995   0.00000  Uiso   1.00
C104   C     0.05484   0.61085   0.84275   0.00000  Uiso   1.00
C105   C     0.01819   0.59715   0.89666   0.00000  Uiso   1.00
C106   C     0.96370   0.56818   0.88671   0.00000  Uiso   1.00
C107   C     0.94515   0.55601   0.82391   0.00000  Uiso   1.00
C108   C     0.98180   0.57896   0.77000   0.00000  Uiso   1.00
H35    H     0.06331   0.61785   0.74003   0.00000  Uiso   1.00
O69    O     0.10305   0.62900   0.85704   0.00000  Uiso   1.00
O70    O     0.03904   0.61137   0.95152   0.00000  Uiso   1.00
H36    H     0.93668   0.55454   0.92664   0.00000  Uiso   1.00
O71    O     0.89694   0.52596   0.80962   0.00000  Uiso   1.00
O72    O     0.96095   0.57234   0.71515   0.00000  Uiso   1.00
loop_
_geom_bond_atom_site_label_1
_geom_bond_atom_site_label_2
_geom_bond_distance
_geom_bond_site_symmetry_2
_ccdc_geom_bond_type
Fe1    O3      1.897   .     S
Fe1    O4      1.899   .     S
Fe1    O27     1.921   .     S
Fe1    O28     1.874   .     S
Fe1    O51     1.896   .     S
Fe1    O52     1.899   .     S
Fe2    O5      1.897   .     S
Fe2    O6      1.899   .     S
Fe2    O29     1.921   .     S
Fe2    O30     1.874   .     S
Fe2    O53     1.896   .     S
Fe2    O54     1.899   .     S
Fe3    O9      1.899   .     S
Fe3    O10     1.897   .     S
Fe3    O35     1.921   .     S
Fe3    O36     1.874   .     S
Fe3    O57     1.899   .     S
Fe3    O58     1.896   .     S
Fe4    O15     1.899   .     S
Fe4    O16     1.897   .     S
Fe4    O37     1.874   .     S
Fe4    O38     1.921   .     S
Fe4    O61     1.899   .     S
Fe4    O62     1.896   .     S
Fe5    O17     1.897   .     S
Fe5    O18     1.899   .     S
Fe5    O43     1.874   .     S
Fe5    O44     1.921   .     S
Fe5    O67     1.899   .     S
Fe5    O68     1.896   .     S
Fe6    O23     1.897   1_556 S
Fe6    O24     1.899   .     S
Fe6    O47     1.921   .     S
Fe6    O48     1.874   .     S
Fe6    O69     1.899   .     S
Fe6    O70     1.896   .     S
Fe7    O11     1.899   .     S
Fe7    O12     1.897   .     S
Fe7    O41     1.921   .     S
Fe7    O42     1.874   .     S
Fe7    O71     1.899   .     S
Fe7    O72     1.896   .     S
Fe8    O13     1.899   .     S
Fe8    O14     1.897   .     S
Fe8    O45     1.874   .     S
Fe8    O46     1.921   .     S
Fe8    O49     1.896   .     S
Fe8    O50     1.899   .     S
Fe9    O19     1.897   1_554 S
Fe9    O20     1.899   .     S
Fe9    O25     1.874   .     S
Fe9    O26     1.921   .     S
Fe9    O55     1.896   .     S
Fe9    O56     1.899   .     S
Fe10   O21     1.897   .     S
Fe10   O22     1.899   .     S
Fe10   O31     1.874   .     S
Fe10   O32     1.921   .     S
Fe10   O59     1.899   .     S
Fe10   O60     1.896   .     S
Fe11   O1      1.897   .     S
Fe11   O2      1.899   .     S
Fe11   O33     1.874   .     S
Fe11   O34     1.921   .     S
Fe11   O63     1.899   .     S
Fe11   O64     1.896   .     S
Fe12   O7      1.897   .     S
Fe12   O8      1.899   .     S
Fe12   O39     1.921   .     S
Fe12   O40     1.874   .     S
Fe12   O65     1.899   .     S
Fe12   O66     1.896   .     S
C1     C2      1.402   .     A
C1     C6      1.401   .     A
C1     H1      1.083   .     S
C2     C3      1.471   .     S
C2     O1      1.272   .     A
C3     C4      1.401   .     A
C3     O2      1.274   .     A
C4     C5      1.402   .     A
C4     H2      1.083   .     S
C5     C6      1.471   .     S
C5     O3      1.272   .     A
C6     O4      1.274   .     A
C7     C8      1.402   .     A
C7     C12     1.401   .     A
C7     H3      1.083   .     S
C8     C9      1.471   .     S
C8     O5      1.272   .     A
C9     C10     1.401   .     A
C9     O6      1.274   .     A
C10    C11     1.402   .     A
C10    H4      1.083   .     S
C11    C12     1.471   .     S
C11    O7      1.272   .     A
C12    O8      1.274   .     A
C13    C14     1.401   .     A
C13    C18     1.402   .     A
C13    H5      1.083   .     S
C14    C15     1.471   .     S
C14    O9      1.274   .     A
C15    C16     1.402   .     A
C15    O10     1.272   .     A
C16    C17     1.401   .     A
C16    H6      1.083   .     S
C17    C18     1.471   .     S
C17    O11     1.274   .     A
C18    O12     1.272   .     A
C19    C20     1.401   .     A
C19    C24     1.402   .     A
C19    H7      1.083   .     S
C20    C21     1.471   .     S
C20    O13     1.274   .     A
C21    C22     1.402   .     A
C21    O14     1.272   .     A
C22    C23     1.401   .     A
C22    H8      1.083   .     S
C23    C24     1.471   .     S
C23    O15     1.274   .     A
C24    O16     1.272   .     A
C25    C26     1.402   .     A
C25    C30     1.401   .     A
C25    H9      1.083   .     S
C26    C27     1.471   .     S
C26    O17     1.272   .     A
C27    C28     1.401   .     A
C27    O18     1.274   .     A
C28    C29     1.402   .     A
C28    H10     1.083   .     S
C29    C30     1.471   .     S
C29    O19     1.272   .     A
C30    O20     1.274   1_556 A
O19    Fe9     1.897   1_556 S
O20    C30     1.274   1_554 A
C31    C32     1.402   .     A
C31    C36     1.401   .     A
C31    H11     1.083   .     S
C32    C33     1.471   .     S
C32    O21     1.272   .     A
C33    C34     1.401   .     A
C33    O22     1.274   .     A
C34    C35     1.402   .     A
C34    H12     1.083   .     S
C35    C36     1.471   .     S
C35    O23     1.272   .     A
C36    O24     1.274   1_554 A
O23    Fe6     1.897   1_554 S
O24    C36     1.274   1_556 A
C37    C38     1.386   .     A
C37    C42     1.386   .     A
C37    H13     1.084   .     S
C38    C39     1.472   .     S
C38    O25     1.262   .     A
C39    C40     1.417   .     A
C39    O26     1.285   .     A
C40    C41     1.417   .     A
C40    H14     1.082   .     S
C41    C42     1.472   .     S
C41    O27     1.285   .     A
C42    O28     1.262   .     A
C43    C44     1.417   .     A
C43    C48     1.417   .     A
C43    H15     1.082   .     S
C44    C45     1.472   .     S
C44    O29     1.285   .     A
C45    C46     1.386   .     A
C45    O30     1.262   .     A
C46    C47     1.386   .     A
C46    H16     1.084   .     S
C47    C48     1.472   .     S
C47    O31     1.262   .     A
C48    O32     1.285   .     A
C49    C50     1.386   .     A
C49    C54     1.386   .     A
C49    H17     1.084   .     S
C50    C51     1.472   .     S
C50    O33     1.262   .     A
C51    C52     1.417   .     A
C51    O34     1.285   .     A
C52    C53     1.417   .     A
C52    H18     1.082   .     S
C53    C54     1.472   .     S
C53    O35     1.285   .     A
C54    O36     1.262   .     A
C55    C56     1.386   .     A
C55    C60     1.386   .     A
C55    H19     1.084   .     S
C56    C57     1.472   .     S
C56    O37     1.262   .     A
C57    C58     1.417   .     A
C57    O38     1.285   .     A
C58    C59     1.417   .     A
C58    H20     1.082   .     S
C59    C60     1.472   .     S
C59    O39     1.285   .     A
C60    O40     1.262   .     A
C61    C62     1.417   .     A
C61    C66     1.417   .     A
C61    H21     1.082   .     S
C62    C63     1.472   .     S
C62    O41     1.285   .     A
C63    C64     1.386   .     A
C63    O42     1.262   .     A
C64    C65     1.386   .     A
C64    H22     1.084   .     S
C65    C66     1.472   .     S
C65    O43     1.262   .     A
C66    O44     1.285   .     A
C67    C68     1.386   .     A
C67    C72     1.386   .     A
C67    H23     1.084   .     S
C68    C69     1.472   .     S
C68    O45     1.262   .     A
C69    C70     1.417   .     A
C69    O46     1.285   .     A
C70    C71     1.417   .     A
C70    H24     1.082   .     S
C71    C72     1.472   .     S
C71    O47     1.285   .     A
C72    O48     1.262   .     A
C73    C74     1.402   1_545 A
C73    C78     1.401   1_556 A
C73    H25     1.083   .     S
C74    C73     1.402   1_565 A
C74    C75     1.471   .     S
C74    O49     1.271   .     A
C75    C76     1.401   1_556 A
C75    O50     1.274   .     A
C76    C75     1.401   1_554 A
C76    C77     1.402   1_565 A
C76    H26     1.083   .     S
C77    C76     1.402   1_545 A
C77    C78     1.471   .     S
C77    O51     1.271   .     A
C78    C73     1.401   1_554 A
C78    O52     1.274   .     A
C79    C80     1.402   .     A
C79    C84     1.401   .     A
C79    H27     1.083   .     S
C80    C81     1.471   .     S
C80    O53     1.271   .     A
C81    C82     1.401   .     A
C81    O54     1.274   .     A
C82    C83     1.402   .     A
C82    H28     1.083   .     S
C83    C84     1.471   .     S
C83    O55     1.271   .     A
C84    O56     1.274   .     A
C85    C86     1.401   .     A
C85    C90     1.402   1_655 A
C85    H29     1.083   .     S
C86    C87     1.471   .     S
C86    O57     1.274   .     A
C87    C88     1.402   1_655 A
C87    O58     1.271   .     A
C88    C87     1.402   1_455 A
C88    C89     1.401   .     A
C88    H30     1.083   .     S
C89    C90     1.471   .     S
C89    O59     1.274   .     A
C90    C85     1.402   1_455 A
C90    O60     1.271   .     A
C91    C92     1.401   .     A
C91    C96     1.402   1_565 A
C91    H31     1.083   .     S
C92    C93     1.471   .     S
C92    O61     1.274   .     A
C93    C94     1.402   1_565 A
C93    O62     1.271   .     A
C94    C93     1.402   1_545 A
C94    C95     1.401   .     A
C94    H32     1.083   .     S
C95    C96     1.471   .     S
C95    O63     1.274   .     A
C96    C91     1.402   1_545 A
C96    O64     1.271   .     A
C97    C98     1.401   .     A
C97    C102    1.402   .     A
C97    H33     1.083   .     S
C98    C99     1.471   .     S
C98    O65     1.274   .     A
C99    C100    1.402   .     A
C99    O66     1.271   .     A
C100   C101    1.401   .     A
C100   H34     1.083   .     S
C101   C102    1.471   .     S
C101   O67     1.274   .     A
C102   O68     1.271   .     A
C103   C104    1.401   .     A
C103   C108    1.402   1_455 A
C103   H35     1.083   .     S
C104   C105    1.471   .     S
C104   O69     1.274   .     A
C105   C106    1.402   1_455 A
C105   O70     1.271   .     A
C106   C105    1.402   1_655 A
C106   C107    1.401   .     A
C106   H36     1.083   .     S
C107   C108    1.471   .     S
C107   O71     1.274   .     A
C108   C103    1.402   1_655 A
C108   O72     1.271   .     A
