data_etg-spacer-TP_O-Feoct
_audit_creation_date              2021-11-06
_audit_creation_method            'Materials Studio'
_symmetry_space_group_name_H-M    'P42/MCM'
_symmetry_Int_Tables_number       132
_symmetry_cell_setting            tetragonal
loop_
_symmetry_equiv_pos_as_xyz
  x,y,z
  -x,-y,z
  -y,x,z+1/2
  y,-x,z+1/2
  -x,y,-z+1/2
  x,-y,-z+1/2
  y,x,-z
  -y,-x,-z
  -x,-y,-z
  x,y,-z
  y,-x,-z+1/2
  -y,x,-z+1/2
  x,-y,z+1/2
  -x,y,z+1/2
  -y,-x,z
  y,x,z
_cell_length_a                    40.2865
_cell_length_b                    40.2865
_cell_length_c                    53.8641
_cell_angle_alpha                 90.0000
_cell_angle_beta                  90.0000
_cell_angle_gamma                 90.0000
loop_
_atom_site_label
_atom_site_type_symbol
_atom_site_fract_x
_atom_site_fract_y
_atom_site_fract_z
_atom_site_U_iso_or_equiv
_atom_site_adp_type
_atom_site_occupancy
C1     C     0.26512   0.29033   0.59181   0.00000  Uiso   1.00
C3     C     0.30466   0.25429   0.61466   0.00000  Uiso   1.00
C4     C     0.29446   0.26944   0.63744   0.00000  Uiso   1.00
C7     C     0.30979   0.25879   0.65982   0.00000  Uiso   1.00
C8     C     0.33376   0.23425   0.65968   0.00000  Uiso   1.00
C9     C     0.34335   0.21930   0.63824   0.00000  Uiso   1.00
C10    C     0.32926   0.22869   0.61567   0.00000  Uiso   1.00
C11    C     0.25182   0.30075   0.56859   0.00000  Uiso   1.00
C12    C     0.26304   0.28692   0.54652   0.00000  Uiso   1.00
H1     H     0.30414   0.26864   0.67786   0.00000  Uiso   1.00
H2     H     0.33803   0.21542   0.59964   0.00000  Uiso   1.00
H3     H     0.23324   0.31973   0.56669   0.00000  Uiso   1.00
O1     O     0.22363   0.34897   0.68112   0.00000  Uiso   1.00
O2     O     0.19487   0.36746   0.64054   0.00000  Uiso   1.00
O5     O     0.29662   0.25126   0.52354   0.00000  Uiso   1.00
C242   C     0.02988   0.48279   0.75132   0.00000  Uiso   1.00
O49    O     0.06009   0.46702   0.75502   0.00000  Uiso   1.00
C265   C     0.13550   0.45262   0.73330   0.00000  Uiso   1.00
C266   C     0.11870   0.46352   0.71210   0.00000  Uiso   1.00
C267   C     0.12604   0.44937   0.68884   0.00000  Uiso   1.00
C268   C     0.15029   0.42434   0.68752   0.00000  Uiso   1.00
C269   C     0.16638   0.41383   0.70866   0.00000  Uiso   1.00
C270   C     0.15938   0.42766   0.73175   0.00000  Uiso   1.00
O65    O     0.12801   0.46712   0.75586   0.00000  Uiso   1.00
O66    O     0.09502   0.48844   0.71498   0.00000  Uiso   1.00
H105   H     0.11330   0.45764   0.67227   0.00000  Uiso   1.00
O67    O     0.15971   0.40876   0.66566   0.00000  Uiso   1.00
O68    O     0.18962   0.38916   0.70569   0.00000  Uiso   1.00
H106   H     0.17230   0.41923   0.74820   0.00000  Uiso   1.00
Fe9    Cu    0.19187   0.37862   0.67318   0.00000  Uiso   1.00
Fe1    Fe    0.09432   0.50000   0.75000   0.00000  Uiso   1.00
C241   C     1.00000   0.46512   0.75000   0.00000  Uiso   1.00
H97    H     1.00000   0.43825   0.75000   0.00000  Uiso   1.00
Fe25   Cu    0.27388   0.27388   0.50000   0.00000  Uiso   1.00
loop_
_geom_bond_atom_site_label_1
_geom_bond_atom_site_label_2
_geom_bond_distance
_geom_bond_site_symmetry_2
_ccdc_geom_bond_type
C1     C1      1.437   16    A
C1     C3      1.427   16    A
C1     C11     1.424   .     A
C3     C1      1.427   16    A
C3     C4      1.431   .     A
C3     C10     1.431   .     A
C4     C4      1.425   16    A
C4     C7      1.421   .     A
C7     C8      1.382   .     A
C7     H1      1.074   .     S
C8     C9      1.359   .     A
C8     O1      1.376   16    S
C9     C10     1.394   .     A
C9     O2      1.388   16    S
C10    H2      1.075   .     S
C11    C12     1.388   .     A
C11    H3      1.075   .     S
C12    C12     1.360   16    A
C12    O5      1.382   16    S
O1     Fe9     1.802   .     S
O1     C8      1.376   16    S
O2     Fe9     1.819   .     S
O2     C9      1.388   16    S
O5     Fe25    1.810   .     S
O5     C12     1.382   16    S
C242   C241    1.400   1_455 A
C242   C242    1.394   6_566 A
C242   O49     1.388   .     S
O49    Fe1     1.934   .     S
C265   C266    1.398   .     A
C265   C270    1.394   .     A
C265   O65     1.381   .     S
C266   C267    1.408   .     A
C266   O66     1.394   .     S
C267   C268    1.406   .     A
C267   H105    1.082   .     S
C268   C269    1.377   .     A
C268   O67     1.387   .     S
C269   C270    1.392   .     A
C269   O68     1.375   .     S
C270   H106    1.083   .     S
O65    Fe1     1.923   .     S
O66    Fe1     1.943   .     S
O67    Fe9     1.821   .     S
O68    Fe9     1.804   .     S
Fe1    O49     1.934   6_566 S
Fe1    O65     1.923   6_566 S
Fe1    O66     1.943   6_566 S
C241   C242    1.400   1_655 A
C241   C242    1.400   5_656 A
C241   H97     1.082   .     S
Fe25   O5      1.810   16    S
Fe25   O5      1.810   10_556 S
Fe25   O5      1.810   7_556 S
