data_etg-B_O-Feoct
_audit_creation_date              2021-11-06
_audit_creation_method            'Materials Studio'
_symmetry_space_group_name_H-M    'P42/MCM'
_symmetry_Int_Tables_number       132
_symmetry_cell_setting            tetragonal
loop_
_symmetry_equiv_pos_as_xyz
  x,y,z
  -x,-y,z
  -y,x,z+1/2
  y,-x,z+1/2
  -x,y,-z+1/2
  x,-y,-z+1/2
  y,x,-z
  -y,-x,-z
  -x,-y,-z
  x,y,-z
  y,-x,-z+1/2
  -y,x,-z+1/2
  x,-y,z+1/2
  -x,y,z+1/2
  -y,-x,z
  y,x,z
_cell_length_a                    16.8262
_cell_length_b                    16.8262
_cell_length_c                    22.3820
_cell_angle_alpha                 90.0000
_cell_angle_beta                  90.0000
_cell_angle_gamma                 90.0000
loop_
_atom_site_label
_atom_site_type_symbol
_atom_site_fract_x
_atom_site_fract_y
_atom_site_fract_z
_atom_site_U_iso_or_equiv
_atom_site_adp_type
_atom_site_occupancy
C1     C     0.36507   0.30684   0.11145   0.00000  Uiso   1.00
C2     C     0.40376   0.28551   0.16467   0.00000  Uiso   1.00
C3     C     0.38345   0.32493   0.21720   0.00000  Uiso   1.00
O1     O     0.38298   0.27387   0.05660   0.00000  Uiso   1.00
O2     O     0.46315   0.22770   0.16753   0.00000  Uiso   1.00
O3     O     0.42329   0.30585   0.26912   0.00000  Uiso   1.00
C50    C     0.07136   0.45902   0.25426   0.00000  Uiso   1.00
O49    O     0.14348   0.42230   0.26617   0.00000  Uiso   1.00
Fe1    Fe    0.22544   0.50000   0.25000   0.00000  Uiso   1.00
C49    C     0.00000   0.41649   0.25000   0.00000  Uiso   1.00
H1     H     0.00000   0.35216   0.25000   0.00000  Uiso   1.00
Fe9    Cu    0.32801   0.32801   1.00000   0.00000  Uiso   1.00
loop_
_geom_bond_atom_site_label_1
_geom_bond_atom_site_label_2
_geom_bond_distance
_geom_bond_site_symmetry_2
_ccdc_geom_bond_type
C1     C2      1.404   .     A
C1     C1      1.386   16    A
C1     O1      1.381   .     S
C2     C3      1.392   .     A
C2     O2      1.396   .     S
C3     C3      1.393   16    A
C3     O3      1.379   .     S
O1     Fe9     1.814   1_554 S
O2     Fe1     1.948   12_655 S
O3     Fe1     1.918   12_655 S
C50    C49     1.401   .     A
C50    C50     1.392   6_565 A
C50    O49     1.387   .     S
O49    Fe1     1.935   .     S
Fe1    O2      1.948   16    S
Fe1    O2      1.948   11_565 S
Fe1    O3      1.918   11_565 S
Fe1    O3      1.918   16    S
Fe1    O49     1.935   6_565 S
C49    C50     1.401   5     A
C49    H1      1.082   .     S
Fe9    O1      1.814   10_556 S
Fe9    O1      1.814   16_556 S
Fe9    O1      1.814   1_556 S
Fe9    O1      1.814   7_556 S
