data_etg-spacer-TN_O-Feoct
_audit_creation_date              2021-11-06
_audit_creation_method            'Materials Studio'
_symmetry_space_group_name_H-M    'P42/MCM'
_symmetry_Int_Tables_number       132
_symmetry_cell_setting            tetragonal
loop_
_symmetry_equiv_pos_as_xyz
  x,y,z
  -x,-y,z
  -y,x,z+1/2
  y,-x,z+1/2
  -x,y,-z+1/2
  x,-y,-z+1/2
  y,x,-z
  -y,-x,-z
  -x,-y,-z
  x,y,-z
  y,-x,-z+1/2
  -y,x,-z+1/2
  x,-y,z+1/2
  -x,y,z+1/2
  -y,-x,z
  y,x,z
_cell_length_a                    46.1228
_cell_length_b                    46.1228
_cell_length_c                    68.9566
_cell_angle_alpha                 90.0000
_cell_angle_beta                  90.0000
_cell_angle_gamma                 90.0000
loop_
_atom_site_label
_atom_site_type_symbol
_atom_site_fract_x
_atom_site_fract_y
_atom_site_fract_z
_atom_site_U_iso_or_equiv
_atom_site_adp_type
_atom_site_occupancy
C1     C     0.26640   0.28834   0.60719   0.00000  Uiso   1.00
C3     C     0.30001   0.25610   0.62512   0.00000  Uiso   1.00
C4     C     0.29137   0.26945   0.64287   0.00000  Uiso   1.00
C7     C     0.30471   0.26002   0.66033   0.00000  Uiso   1.00
C8     C     0.32510   0.23781   0.66065   0.00000  Uiso   1.00
C9     C     0.33298   0.22380   0.64334   0.00000  Uiso   1.00
C10    C     0.32031   0.23273   0.62590   0.00000  Uiso   1.00
C11    C     0.25588   0.29859   0.58905   0.00000  Uiso   1.00
C12    C     0.26588   0.28745   0.57147   0.00000  Uiso   1.00
C19    C     0.22916   0.33757   0.67831   0.00000  Uiso   1.00
C20    C     0.20681   0.35776   0.67847   0.00000  Uiso   1.00
C21    C     0.19299   0.36581   0.66170   0.00000  Uiso   1.00
C22    C     0.20107   0.35358   0.64389   0.00000  Uiso   1.00
H1     H     0.29991   0.26930   0.67423   0.00000  Uiso   1.00
H2     H     0.32644   0.22049   0.61328   0.00000  Uiso   1.00
H3     H     0.24036   0.31592   0.58794   0.00000  Uiso   1.00
H7     H     0.23960   0.33171   0.69184   0.00000  Uiso   1.00
O1     O     0.19740   0.37067   0.69531   0.00000  Uiso   1.00
O2     O     0.17121   0.38633   0.66376   0.00000  Uiso   1.00
H8     H     0.18995   0.36011   0.63076   0.00000  Uiso   1.00
C27    C     0.29790   0.25491   0.55372   0.00000  Uiso   1.00
C28    C     0.28664   0.26560   0.53635   0.00000  Uiso   1.00
H11    H     0.31456   0.23836   0.55334   0.00000  Uiso   1.00
O5     O     0.29577   0.25604   0.51838   0.00000  Uiso   1.00
C242   C     0.02610   0.48496   0.75101   0.00000  Uiso   1.00
O49    O     0.05250   0.47117   0.75384   0.00000  Uiso   1.00
C265   C     0.11862   0.45897   0.73676   0.00000  Uiso   1.00
C266   C     0.10382   0.46852   0.72026   0.00000  Uiso   1.00
C267   C     0.11028   0.45641   0.70202   0.00000  Uiso   1.00
C268   C     0.13177   0.43487   0.70085   0.00000  Uiso   1.00
C269   C     0.14615   0.42583   0.71727   0.00000  Uiso   1.00
C270   C     0.13986   0.43756   0.73539   0.00000  Uiso   1.00
O65    O     0.11185   0.47126   0.75446   0.00000  Uiso   1.00
O66    O     0.08298   0.49011   0.72262   0.00000  Uiso   1.00
H105   H     0.09898   0.46360   0.68914   0.00000  Uiso   1.00
O67    O     0.14003   0.42152   0.68370   0.00000  Uiso   1.00
O68    O     0.16695   0.40481   0.71477   0.00000  Uiso   1.00
H106   H     0.15134   0.43025   0.74818   0.00000  Uiso   1.00
Fe9    Cu    0.16883   0.39585   0.68933   0.00000  Uiso   1.00
Fe1    Fe    0.08239   0.50000   0.75000   0.00000  Uiso   1.00
C241   C     1.00000   0.46953   0.75000   0.00000  Uiso   1.00
H97    H     1.00000   0.44606   0.75000   0.00000  Uiso   1.00
Fe25   Cu    0.27589   0.27589   0.50000   0.00000  Uiso   1.00
loop_
_geom_bond_atom_site_label_1
_geom_bond_atom_site_label_2
_geom_bond_distance
_geom_bond_site_symmetry_2
_ccdc_geom_bond_type
C1     C1      1.431   16    A
C1     C3      1.430   16    A
C1     C11     1.422   .     A
C3     C1      1.430   16    A
C3     C4      1.427   .     A
C3     C10     1.429   .     A
C4     C4      1.430   16    A
C4     C7      1.420   .     A
C7     C8      1.391   .     A
C7     H1      1.073   .     S
C8     C9      1.405   .     A
C8     C19     1.404   16    A
C9     C10     1.399   .     A
C9     C22     1.415   16    A
C10    H2      1.075   .     S
C11    C12     1.396   .     A
C11    H3      1.075   .     S
C12    C12     1.407   16    A
C12    C27     1.409   16    A
C19    C8      1.404   16    A
C19    C20     1.389   .     A
C19    H7      1.084   .     S
C20    C21     1.372   .     A
C20    O1      1.375   .     S
C21    C22     1.402   .     A
C21    O2      1.387   .     S
C22    C9      1.415   16    A
C22    H8      1.083   .     S
O1     Fe9     1.804   .     S
O2     Fe9     1.821   .     S
C27    C12     1.409   16    A
C27    C28     1.396   .     A
C27    H11     1.084   .     S
C28    C28     1.372   16    A
C28    O5      1.381   .     S
O5     Fe25    1.812   .     S
C242   C241    1.400   1_455 A
C242   C242    1.394   6_566 A
C242   O49     1.388   .     S
O49    Fe1     1.934   .     S
C265   C266    1.398   .     A
C265   C270    1.394   .     A
C265   O65     1.382   .     S
C266   C267    1.408   .     A
C266   O66     1.393   .     S
C267   C268    1.406   .     A
C267   H105    1.082   .     S
C268   C269    1.377   .     A
C268   O67     1.387   .     S
C269   C270    1.392   .     A
C269   O68     1.375   .     S
C270   H106    1.083   .     S
O65    Fe1     1.923   .     S
O66    Fe1     1.943   .     S
O67    Fe9     1.821   .     S
O68    Fe9     1.805   .     S
Fe1    O49     1.934   6_566 S
Fe1    O65     1.923   6_566 S
Fe1    O66     1.943   6_566 S
C241   C242    1.400   1_655 A
C241   C242    1.400   5_656 A
C241   H97     1.082   .     S
Fe25   O5      1.812   16    S
Fe25   O5      1.812   10_556 S
Fe25   O5      1.812   7_556 S
