data_eth-spacer-TN_O-Feoct
_audit_creation_date              2021-11-06
_audit_creation_method            'Materials Studio'
_symmetry_space_group_name_H-M    'PMNA'
_symmetry_Int_Tables_number       53
_symmetry_cell_setting            orthorhombic
loop_
_symmetry_equiv_pos_as_xyz
  x,y,z
  -x+1/2,-y,z+1/2
  -x+1/2,y,-z+1/2
  x,-y,-z
  -x,-y,-z
  x+1/2,y,-z+1/2
  x+1/2,-y,z+1/2
  -x,y,z
_cell_length_a                    81.2914
_cell_length_b                    31.0504
_cell_length_c                    21.6448
_cell_angle_alpha                 90.0000
_cell_angle_beta                  90.0000
_cell_angle_gamma                 90.0000
loop_
_atom_site_label
_atom_site_type_symbol
_atom_site_fract_x
_atom_site_fract_y
_atom_site_fract_z
_atom_site_U_iso_or_equiv
_atom_site_adp_type
_atom_site_occupancy
Fe1    Fe   -0.21591   0.08202   0.63015   0.00000  Uiso   1.00
C1     C    -0.12114   0.47886   0.51250   0.00000  Uiso   1.00
C2     C    -0.10610   0.45610   0.52005   0.00000  Uiso   1.00
C3     C    -0.09088   0.47810   0.51036   0.00000  Uiso   1.00
C7     C    -0.07555   0.54202   1.47717   0.00000  Uiso   1.00
C8     C    -0.06062   0.52112   1.48814   0.00000  Uiso   1.00
C11    C    -0.13595   0.45914   0.53212   0.00000  Uiso   1.00
C12    C    -0.13640   0.41630   0.55093   0.00000  Uiso   1.00
C13    C    -0.12184   0.39173   0.55127   0.00000  Uiso   1.00
C14    C    -0.10688   0.41168   0.53649   0.00000  Uiso   1.00
C19    C    -0.12255   0.65237   1.43279   0.00000  Uiso   1.00
C20    C    -0.13773   0.67075   1.41715   0.00000  Uiso   1.00
C21    C    -0.15174   0.64609   1.41598   0.00000  Uiso   1.00
C22    C    -0.15138   0.60265   1.43163   0.00000  Uiso   1.00
C23    C    -0.04557   0.45802   0.52390   0.00000  Uiso   1.00
C24    C    -0.03083   0.47947   0.51174   0.00000  Uiso   1.00
H1     H    -0.07474   0.57379   1.45750   0.00000  Uiso   1.00
H3     H    -0.14734   0.47693   0.53480   0.00000  Uiso   1.00
H4     H    -0.09614   0.39138   0.53711   0.00000  Uiso   1.00
H7     H    -0.11157   0.67213   1.43273   0.00000  Uiso   1.00
O1     O    -0.13976   0.71386   1.40238   0.00000  Uiso   1.00
O2     O    -0.16606   0.66680   1.39950   0.00000  Uiso   1.00
H8     H    -0.16270   0.58421   1.43119   0.00000  Uiso   1.00
H9     H    -0.04525   0.42555   0.54221   0.00000  Uiso   1.00
O3     O    -0.01559   0.46123   0.52213   0.00000  Uiso   1.00
C121   C    -0.26179   0.07471   0.70250   0.00000  Uiso   1.00
C122   C    -0.26671   0.07561   0.76444   0.00000  Uiso   1.00
C123   C    -0.25501   0.07456   0.81161   0.00000  Uiso   1.00
H49    H    -0.27087   0.07503   0.66592   0.00000  Uiso   1.00
O25    O    -0.28318   0.07847   0.78077   0.00000  Uiso   1.00
O26    O    -0.26050   0.07450   0.87230   0.00000  Uiso   1.00
C145   C    -0.21346   0.03350   1.45633   0.00000  Uiso   1.00
C146   C    -0.21331   0.99048   1.43706   0.00000  Uiso   1.00
C147   C    -0.21386   0.95724   1.48042   0.00000  Uiso   1.00
H57    H    -0.21356   0.05930   1.42268   0.00000  Uiso   1.00
O41    O    -0.21300   0.97962   1.37490   0.00000  Uiso   1.00
O42    O    -0.21509   0.91523   1.45902   0.00000  Uiso   1.00
C169   C    -0.20355   0.16219   0.63267   0.00000  Uiso   1.00
C170   C    -0.18974   0.13537   0.63174   0.00000  Uiso   1.00
C171   C    -0.17389   0.15336   0.62819   0.00000  Uiso   1.00
C172   C    -0.17232   0.19834   0.62498   0.00000  Uiso   1.00
C173   C    -0.18604   0.22432   0.62636   0.00000  Uiso   1.00
C174   C    -0.20180   0.20689   0.63060   0.00000  Uiso   1.00
O57    O    -0.21897   0.14344   0.63436   0.00000  Uiso   1.00
O58    O    -0.19230   0.09106   0.63316   0.00000  Uiso   1.00
H65    H    -0.16311   0.13291   0.62689   0.00000  Uiso   1.00
O59    O    -0.15738   0.21945   0.61927   0.00000  Uiso   1.00
O60    O    -0.18332   0.26796   0.62213   0.00000  Uiso   1.00
H66    H    -0.21250   0.22763   0.63110   0.00000  Uiso   1.00
Fe11   Cu   -0.16158   0.27664   0.61016   0.00000  Uiso   1.00
Fe9    Cu    0.00000   0.50000   0.50000   0.00000  Uiso   1.00
loop_
_geom_bond_atom_site_label_1
_geom_bond_atom_site_label_2
_geom_bond_distance
_geom_bond_site_symmetry_2
_ccdc_geom_bond_type
Fe1    O25     1.933   3_456 S
Fe1    O26     1.932   3_456 S
Fe1    O41     1.932   4_567 S
Fe1    O42     1.933   4_567 S
Fe1    O57     1.925   .     S
Fe1    O58     1.940   .     S
C1     C2      1.422   .     A
C1     C1      1.420   4_566 A
C1     C11     1.416   .     A
C2     C3      1.429   .     A
C2     C14     1.426   .     A
C3     C3      1.432   4_566 A
C3     C7      1.420   4_567 A
C7     C3      1.420   4_567 A
C7     C8      1.396   .     A
C7     H1      1.077   .     S
C8     C8      1.408   4_568 A
C8     C23     1.409   4_567 A
C11    C12     1.392   .     A
C11    H3      1.080   .     S
C12    C13     1.409   .     A
C12    C22     1.404   4_567 A
C13    C14     1.401   .     A
C13    C19     1.413   4_567 A
C14    H4      1.077   .     S
C19    C13     1.413   4_567 A
C19    C20     1.401   .     A
C19    H7      1.083   .     S
C20    C21     1.373   .     A
C20    O1      1.386   .     S
C21    C22     1.391   .     A
C21    O2      1.376   .     S
C22    C12     1.404   4_567 A
C22    H8      1.084   .     S
C23    C8      1.409   4_567 A
C23    C24     1.396   .     A
C23    H9      1.084   .     S
C24    C24     1.372   4_566 A
C24    O3      1.381   .     S
O1     Fe11    1.819   4_567 S
O2     Fe11    1.806   4_567 S
O3     Fe9     1.812   .     S
C121   C122    1.399   .     A
C121   C123    1.399   3_456 A
C121   H49     1.083   .     S
C122   C123    1.396   .     A
C122   O25     1.388   .     S
C123   C121    1.399   3_456 A
C123   O26     1.388   .     S
O25    Fe1     1.933   3_456 S
O26    Fe1     1.932   3_456 S
C145   C146    1.399   1_545 A
C145   C147    1.399   4_568 A
C145   H57     1.083   .     S
C146   C145    1.399   1_565 A
C146   C147    1.396   .     A
C146   O41     1.387   .     S
C147   C145    1.399   4_568 A
C147   O42     1.388   .     S
O41    Fe1     1.932   4_567 S
O42    Fe1     1.933   4_567 S
C169   C170    1.398   .     A
C169   C174    1.396   .     A
C169   O57     1.383   .     S
C170   C171    1.406   .     A
C170   O58     1.392   .     S
C171   C172    1.404   .     A
C171   H65     1.082   .     S
C172   C173    1.377   .     A
C172   O59     1.386   .     S
C173   C174    1.394   .     A
C173   O60     1.376   .     S
C174   H66     1.083   .     S
O59    Fe11    1.819   .     S
O60    Fe11    1.806   .     S
Fe11   O1      1.819   4_567 S
Fe11   O2      1.806   4_567 S
Fe9    O3      1.812   4_566 S
Fe9    O3      1.812   5_566 S
Fe9    O3      1.812   8     S
