data_eth-spacer-TP_O-Feoct
_audit_creation_date              2021-11-06
_audit_creation_method            'Materials Studio'
_symmetry_space_group_name_H-M    'PMNA'
_symmetry_Int_Tables_number       53
_symmetry_cell_setting            orthorhombic
loop_
_symmetry_equiv_pos_as_xyz
  x,y,z
  -x+1/2,-y,z+1/2
  -x+1/2,y,-z+1/2
  x,-y,-z
  -x,-y,-z
  x+1/2,y,-z+1/2
  x+1/2,-y,z+1/2
  -x,y,z
_cell_length_a                    65.9553
_cell_length_b                    27.1917
_cell_length_c                    21.4088
_cell_angle_alpha                 90.0000
_cell_angle_beta                  90.0000
_cell_angle_gamma                 90.0000
loop_
_atom_site_label
_atom_site_type_symbol
_atom_site_fract_x
_atom_site_fract_y
_atom_site_fract_z
_atom_site_U_iso_or_equiv
_atom_site_adp_type
_atom_site_occupancy
Fe1    Fe   -0.20807   0.09630   0.62843   0.00000  Uiso   1.00
C1     C    -0.11238   0.47598   0.51290   0.00000  Uiso   1.00
C2     C    -0.09378   0.44995   0.52103   0.00000  Uiso   1.00
C3     C    -0.07505   0.47475   0.50993   0.00000  Uiso   1.00
C7     C    -0.05607   0.54891   1.48030   0.00000  Uiso   1.00
C8     C    -0.03801   0.52386   1.49037   0.00000  Uiso   1.00
C11    C    -0.13067   0.45339   0.53259   0.00000  Uiso   1.00
C12    C    -0.13074   0.40522   0.55340   0.00000  Uiso   1.00
C13    C    -0.11336   0.37826   0.55555   0.00000  Uiso   1.00
C14    C    -0.09477   0.39976   0.54062   0.00000  Uiso   1.00
H1     H    -0.05462   0.58628   1.46447   0.00000  Uiso   1.00
O1     O    -0.01922   0.54527   1.48159   0.00000  Uiso   1.00
H3     H    -0.14500   0.47247   0.53400   0.00000  Uiso   1.00
O3     O    -0.14821   0.38200   0.57253   0.00000  Uiso   1.00
O4     O    -0.11547   0.32979   0.57471   0.00000  Uiso   1.00
H4     H    -0.08168   0.37636   0.54474   0.00000  Uiso   1.00
C73    C    -0.26457   0.08876   0.70208   0.00000  Uiso   1.00
C74    C    -0.27058   0.09002   0.76474   0.00000  Uiso   1.00
C75    C    -0.25613   0.08828   0.81232   0.00000  Uiso   1.00
H25    H    -0.27578   0.08909   0.66516   0.00000  Uiso   1.00
O25    O    -0.29085   0.09387   0.78141   0.00000  Uiso   1.00
O26    O    -0.26287   0.08732   0.87369   0.00000  Uiso   1.00
C97    C    -0.20495   0.03733   1.45458   0.00000  Uiso   1.00
C98    C    -0.20475   0.98782   1.43677   0.00000  Uiso   1.00
C99    C    -0.20548   0.95078   1.48185   0.00000  Uiso   1.00
H33    H    -0.20508   0.06607   1.41959   0.00000  Uiso   1.00
O41    O    -0.20431   0.97411   1.37436   0.00000  Uiso   1.00
O42    O    -0.20709   0.90240   1.46181   0.00000  Uiso   1.00
C121   C    -0.19317   0.18806   0.62578   0.00000  Uiso   1.00
C122   C    -0.17602   0.15782   0.62618   0.00000  Uiso   1.00
C123   C    -0.15659   0.17866   0.62021   0.00000  Uiso   1.00
C124   C    -0.15492   0.22983   0.61269   0.00000  Uiso   1.00
C125   C    -0.17198   0.25900   0.61205   0.00000  Uiso   1.00
C126   C    -0.19127   0.23889   0.61923   0.00000  Uiso   1.00
O57    O    -0.21207   0.16638   0.63029   0.00000  Uiso   1.00
O58    O    -0.17900   0.10725   0.63103   0.00000  Uiso   1.00
H41    H    -0.14321   0.15563   0.62011   0.00000  Uiso   1.00
O59    O    -0.13665   0.25415   0.60422   0.00000  Uiso   1.00
O60    O    -0.16894   0.30848   0.60258   0.00000  Uiso   1.00
H42    H    -0.20457   0.26220   0.61829   0.00000  Uiso   1.00
Fe11   Cu   -0.14226   0.31855   0.58878   0.00000  Uiso   1.00
Fe9    Cu    0.00000   0.50000   0.50000   0.00000  Uiso   1.00
loop_
_geom_bond_atom_site_label_1
_geom_bond_atom_site_label_2
_geom_bond_distance
_geom_bond_site_symmetry_2
_ccdc_geom_bond_type
Fe1    O25     1.933   3_456 S
Fe1    O26     1.932   3_456 S
Fe1    O41     1.932   4_567 S
Fe1    O42     1.933   4_567 S
Fe1    O57     1.924   .     S
Fe1    O58     1.941   .     S
C1     C2      1.427   .     A
C1     C1      1.418   4_566 A
C1     C11     1.418   .     A
C2     C3      1.427   .     A
C2     C14     1.429   .     A
C3     C3      1.438   4_566 A
C3     C7      1.423   4_567 A
C7     C3      1.423   4_567 A
C7     C8      1.389   .     A
C7     H1      1.076   .     S
C8     C8      1.362   4_568 A
C8     O1      1.382   .     S
C11    C12     1.383   .     A
C11    H3      1.078   .     S
C12    C13     1.362   .     A
C12    O3      1.377   .     S
C13    C14     1.395   .     A
C13    O4      1.387   .     S
C14    H4      1.076   .     S
O1     Fe9     1.811   1_556 S
O3     Fe11    1.803   .     S
O4     Fe11    1.818   .     S
C73    C74     1.399   .     A
C73    C75     1.399   3_456 A
C73    H25     1.083   .     S
C74    C75     1.396   .     A
C74    O25     1.388   .     S
C75    C73     1.399   3_456 A
C75    O26     1.388   .     S
O25    Fe1     1.933   3_456 S
O26    Fe1     1.932   3_456 S
C97    C98     1.399   1_545 A
C97    C99     1.399   4_568 A
C97    H33     1.083   .     S
C98    C97     1.399   1_565 A
C98    C99     1.396   .     A
C98    O41     1.387   .     S
C99    C97     1.399   4_568 A
C99    O42     1.388   .     S
O41    Fe1     1.932   4_567 S
O42    Fe1     1.933   4_567 S
C121   C122    1.398   .     A
C121   C126    1.395   .     A
C121   O57     1.382   .     S
C122   C123    1.407   .     A
C122   O58     1.393   .     S
C123   C124    1.405   .     A
C123   H41     1.082   .     S
C124   C125    1.377   .     A
C124   O59     1.386   .     S
C125   C126    1.393   .     A
C125   O60     1.376   .     S
C126   H42     1.083   .     S
O59    Fe11    1.820   .     S
O60    Fe11    1.805   .     S
Fe9    O1      1.811   8_554 S
Fe9    O1      1.811   5_567 S
Fe9    O1      1.811   4_567 S
Fe9    O1      1.811   1_554 S
