data_eth-spacer-B_O-Feoct
_audit_creation_date              2021-11-06
_audit_creation_method            'Materials Studio'
_symmetry_space_group_name_H-M    'PC'
_symmetry_Int_Tables_number       7
_symmetry_cell_setting            monoclinic
loop_
_symmetry_equiv_pos_as_xyz
  x,y,z
  x,-y,z+1/2
_cell_length_a                    20.6793
_cell_length_b                    23.6200
_cell_length_c                    54.3703
_cell_angle_alpha                 90.0000
_cell_angle_beta                  112.3519
_cell_angle_gamma                 90.0000
loop_
_atom_site_label
_atom_site_type_symbol
_atom_site_fract_x
_atom_site_fract_y
_atom_site_fract_z
_atom_site_U_iso_or_equiv
_atom_site_adp_type
_atom_site_occupancy
Fe1    Fe   -0.18074   0.11804  -0.30519   0.00000  Uiso   1.00
Fe2    Fe    0.42958   0.88199  -0.19486   0.00000  Uiso   1.00
Fe3    Fe    0.57043   0.88199  -0.30519   0.00000  Uiso   1.00
Fe4    Fe    0.18074   0.11804  -0.19487   0.00000  Uiso   1.00
C1     C    -0.40540   0.44370  -0.42604   0.00000  Uiso   1.00
C2     C    -0.44023   0.47201  -0.45021   0.00000  Uiso   1.00
C3     C     0.53987   0.52801  -0.45021   0.00000  Uiso   1.00
C4     C     0.55340   0.55632  -0.42604   0.00000  Uiso   1.00
C5     C     0.58658   0.52792  -0.40249   0.00000  Uiso   1.00
C6     C    -0.39147   0.47211  -0.40249   0.00000  Uiso   1.00
O1     O    -0.38300   0.38789  -0.42378   0.00000  Uiso   1.00
O2     O    -0.45611   0.44742  -0.47485   0.00000  Uiso   1.00
O3     O     0.50646   0.55259  -0.47485   0.00000  Uiso   1.00
O4     O     0.53551   0.61213  -0.42378   0.00000  Uiso   1.00
O5     O     0.59583   0.55715  -0.37954   0.00000  Uiso   1.00
O6     O    -0.35483   0.44288  -0.37954   0.00000  Uiso   1.00
C7     C     0.46013   0.52800  -0.04984   0.00000  Uiso   1.00
C8     C     0.44660   0.55632  -0.07402   0.00000  Uiso   1.00
C9     C     0.41343   0.52791  -0.09757   0.00000  Uiso   1.00
C10    C     0.39149   0.47210  -0.09757   0.00000  Uiso   1.00
C11    C     0.40540   0.44369  -0.07402   0.00000  Uiso   1.00
C12    C     0.44023   0.47200  -0.04984   0.00000  Uiso   1.00
O7     O     0.49352   0.55259  -0.02521   0.00000  Uiso   1.00
O8     O     0.46449   0.61213  -0.07627   0.00000  Uiso   1.00
O9     O     0.40419   0.55714  -0.12051   0.00000  Uiso   1.00
O10    O     0.35484   0.44287  -0.12051   0.00000  Uiso   1.00
O11    O     0.38300   0.38788  -0.07628   0.00000  Uiso   1.00
O12    O     0.45609   0.44742  -0.02521   0.00000  Uiso   1.00
Fe9    Cu   -0.50002   0.50000  -0.50003   0.00000  Uiso   1.00
C25    C    -0.03073   0.11167  -0.23099   0.00000  Uiso   1.00
C26    C     0.04204   0.11374  -0.22304   0.00000  Uiso   1.00
C27    C     0.07252   0.11024  -0.24190   0.00000  Uiso   1.00
C28    C     0.03073   0.11167  -0.26907   0.00000  Uiso   1.00
C29    C    -0.04204   0.11374  -0.27702   0.00000  Uiso   1.00
C30    C    -0.07252   0.11024  -0.25816   0.00000  Uiso   1.00
H1     H    -0.05441   0.11196  -0.21634   0.00000  Uiso   1.00
O25    O     0.08573   0.11986  -0.19651   0.00000  Uiso   1.00
O26    O     0.14481   0.10662  -0.23291   0.00000  Uiso   1.00
H2     H     0.05442   0.11196  -0.28372   0.00000  Uiso   1.00
O27    O    -0.08573   0.11986  -0.30355   0.00000  Uiso   1.00
O28    O    -0.14480   0.10662  -0.26715   0.00000  Uiso   1.00
C31    C     0.56880   0.88836  -0.23099   0.00000  Uiso   1.00
C32    C     0.55626   0.88979  -0.25816   0.00000  Uiso   1.00
C33    C     0.48807   0.88628  -0.27702   0.00000  Uiso   1.00
C34    C     0.43120   0.88836  -0.26906   0.00000  Uiso   1.00
C35    C     0.44375   0.88978  -0.24190   0.00000  Uiso   1.00
C36    C     0.51194   0.88628  -0.22304   0.00000  Uiso   1.00
H3     H     0.62180   0.88807  -0.21634   0.00000  Uiso   1.00
O29    O     0.61058   0.89341  -0.26715   0.00000  Uiso   1.00
O30    O     0.47871   0.88017  -0.30354   0.00000  Uiso   1.00
H4     H     0.37821   0.88807  -0.28372   0.00000  Uiso   1.00
O31    O     0.38943   0.89341  -0.23291   0.00000  Uiso   1.00
O32    O     0.52129   0.88016  -0.19651   0.00000  Uiso   1.00
C49    C     0.64006   0.04022  -0.30986   0.00000  Uiso   1.00
C50    C     0.62564   0.98228  -0.31014   0.00000  Uiso   1.00
C51    C     0.67642   0.94240  -0.30910   0.00000  Uiso   1.00
C52    C    -0.25970   0.95981  -0.30986   0.00000  Uiso   1.00
C53    C    -0.24586   0.01775  -0.31014   0.00000  Uiso   1.00
C54    C    -0.29455   0.05764  -0.30910   0.00000  Uiso   1.00
H9     H     0.60163   0.07115  -0.30966   0.00000  Uiso   1.00
O41    O     0.56179   0.96285  -0.31074   0.00000  Uiso   1.00
O42    O     0.66219   0.88567  -0.30677   0.00000  Uiso   1.00
H10    H    -0.22088   0.92888  -0.30966   0.00000  Uiso   1.00
O43    O    -0.18319   0.03718  -0.31074   0.00000  Uiso   1.00
O44    O    -0.27566   0.11436  -0.30677   0.00000  Uiso   1.00
C55    C     0.35994   0.04021  -0.19020   0.00000  Uiso   1.00
C56    C     0.29455   0.05763  -0.19096   0.00000  Uiso   1.00
C57    C     0.24586   0.01774  -0.18992   0.00000  Uiso   1.00
C58    C     0.25971   0.95981  -0.19020   0.00000  Uiso   1.00
C59    C     0.32358   0.94239  -0.19096   0.00000  Uiso   1.00
C60    C     0.37436   0.98228  -0.18991   0.00000  Uiso   1.00
H11    H     0.39837   0.07115  -0.19040   0.00000  Uiso   1.00
O45    O     0.27566   0.11436  -0.19329   0.00000  Uiso   1.00
O46    O     0.18319   0.03718  -0.18932   0.00000  Uiso   1.00
H12    H     0.22089   0.92888  -0.19040   0.00000  Uiso   1.00
O47    O     0.33781   0.88566  -0.19329   0.00000  Uiso   1.00
O48    O     0.43821   0.96284  -0.18932   0.00000  Uiso   1.00
C73    C    -0.21317   0.22358  -0.32371   0.00000  Uiso   1.00
C74    C    -0.23168   0.19011  -0.34657   0.00000  Uiso   1.00
C75    C    -0.26639   0.21474  -0.37178   0.00000  Uiso   1.00
C76    C    -0.28397   0.27251  -0.37323   0.00000  Uiso   1.00
C77    C    -0.26756   0.30413  -0.35038   0.00000  Uiso   1.00
C78    C    -0.23095   0.28076  -0.32544   0.00000  Uiso   1.00
O57    O    -0.17907   0.19831  -0.29926   0.00000  Uiso   1.00
O58    O    -0.21640   0.13244  -0.34324   0.00000  Uiso   1.00
H17    H    -0.28069   0.18943  -0.38966   0.00000  Uiso   1.00
O59    O    -0.31956   0.30107  -0.39684   0.00000  Uiso   1.00
O60    O    -0.29053   0.35926  -0.35351   0.00000  Uiso   1.00
H18    H    -0.21804   0.30623  -0.30765   0.00000  Uiso   1.00
Fe11   Cu   -0.33701   0.37267  -0.38851   0.00000  Uiso   1.00
C79    C     0.46140   0.80991  -0.15348   0.00000  Uiso   1.00
C80    C     0.43418   0.77645  -0.17635   0.00000  Uiso   1.00
C81    C     0.41986   0.71927  -0.17462   0.00000  Uiso   1.00
C82    C     0.43313   0.69590  -0.14967   0.00000  Uiso   1.00
C83    C     0.46242   0.72751  -0.12682   0.00000  Uiso   1.00
C84    C     0.47710   0.78528  -0.12827   0.00000  Uiso   1.00
O61    O     0.47001   0.86758  -0.15682   0.00000  Uiso   1.00
O62    O     0.41938   0.80171  -0.20080   0.00000  Uiso   1.00
H19    H     0.39718   0.69380  -0.19241   0.00000  Uiso   1.00
O63    O     0.41642   0.64077  -0.14654   0.00000  Uiso   1.00
O64    O     0.47405   0.69895  -0.10321   0.00000  Uiso   1.00
H20    H     0.49856   0.81059  -0.11040   0.00000  Uiso   1.00
Fe12   Cu    0.43994   0.62735  -0.11154   0.00000  Uiso   1.00
C85    C     0.56583   0.77645  -0.32371   0.00000  Uiso   1.00
C86    C     0.53861   0.80992  -0.34657   0.00000  Uiso   1.00
C87    C     0.52291   0.78529  -0.37178   0.00000  Uiso   1.00
C88    C     0.53759   0.72752  -0.37323   0.00000  Uiso   1.00
C89    C     0.56688   0.69591  -0.35038   0.00000  Uiso   1.00
C90    C     0.58016   0.71927  -0.32544   0.00000  Uiso   1.00
O65    O     0.58063   0.80172  -0.29926   0.00000  Uiso   1.00
O66    O     0.53000   0.86759  -0.34324   0.00000  Uiso   1.00
H21    H     0.50144   0.81060  -0.38966   0.00000  Uiso   1.00
O67    O     0.52595   0.69896  -0.39684   0.00000  Uiso   1.00
O68    O     0.58360   0.64078  -0.35351   0.00000  Uiso   1.00
H22    H     0.60283   0.69381  -0.30765   0.00000  Uiso   1.00
Fe13   Cu    0.56007   0.62736  -0.38851   0.00000  Uiso   1.00
C91    C     0.23168   0.19011  -0.15349   0.00000  Uiso   1.00
C92    C     0.21318   0.22357  -0.17635   0.00000  Uiso   1.00
C93    C     0.23096   0.28075  -0.17462   0.00000  Uiso   1.00
C94    C     0.26758   0.30412  -0.14968   0.00000  Uiso   1.00
C95    C     0.28398   0.27250  -0.12683   0.00000  Uiso   1.00
C96    C     0.26640   0.21474  -0.12828   0.00000  Uiso   1.00
O69    O     0.21641   0.13244  -0.15682   0.00000  Uiso   1.00
O70    O     0.17908   0.19831  -0.20080   0.00000  Uiso   1.00
H23    H     0.21806   0.30622  -0.19241   0.00000  Uiso   1.00
O71    O     0.29055   0.35925  -0.14655   0.00000  Uiso   1.00
O72    O     0.31956   0.30106  -0.10322   0.00000  Uiso   1.00
H24    H     0.28069   0.18942  -0.11040   0.00000  Uiso   1.00
Fe14   Cu    0.33702   0.37266  -0.11155   0.00000  Uiso   1.00
loop_
_geom_bond_atom_site_label_1
_geom_bond_atom_site_label_2
_geom_bond_distance
_geom_bond_site_symmetry_2
_ccdc_geom_bond_type
Fe1    O27     1.933   .     S
Fe1    O28     1.933   .     S
Fe1    O43     1.931   .     S
Fe1    O44     1.934   .     S
Fe1    O57     1.921   .     S
Fe1    O58     1.944   .     S
Fe2    O31     1.933   .     S
Fe2    O32     1.933   .     S
Fe2    O47     1.934   .     S
Fe2    O48     1.931   .     S
Fe2    O61     1.944   .     S
Fe2    O62     1.921   .     S
Fe3    O29     1.933   .     S
Fe3    O30     1.933   .     S
Fe3    O41     1.931   .     S
Fe3    O42     1.934   .     S
Fe3    O65     1.921   .     S
Fe3    O66     1.944   .     S
Fe4    O25     1.933   .     S
Fe4    O26     1.933   .     S
Fe4    O45     1.934   .     S
Fe4    O46     1.931   .     S
Fe4    O69     1.944   .     S
Fe4    O70     1.921   .     S
C1     C2      1.405   .     A
C1     C6      1.375   .     A
C1     O1      1.387   .     S
C2     C3      1.385   1_455 A
C2     O2      1.380   .     S
C3     C2      1.385   1_655 A
C3     C4      1.405   .     A
C3     O3      1.380   .     S
C4     C5      1.375   .     A
C4     O4      1.387   .     S
C5     C6      1.394   1_655 A
C5     O5      1.374   .     S
C6     C5      1.394   1_455 A
C6     O6      1.374   .     S
O1     Fe11    1.823   .     S
O2     Fe9     1.815   .     S
O3     Fe9     1.815   1_655 S
O4     Fe13    1.823   .     S
O5     Fe13    1.806   .     S
O6     Fe11    1.806   .     S
C7     C8      1.405   .     A
C7     C12     1.385   .     A
C7     O7      1.380   .     S
C8     C9      1.375   .     A
C8     O8      1.387   .     S
C9     C10     1.394   .     A
C9     O9      1.374   .     S
C10    C11     1.375   .     A
C10    O10     1.374   .     S
C11    C12     1.405   .     A
C11    O11     1.387   .     S
C12    O12     1.380   .     S
O7     Fe9     1.815   2_665 S
O8     Fe12    1.823   .     S
O9     Fe12    1.806   .     S
O10    Fe14    1.806   .     S
O11    Fe14    1.823   .     S
O12    Fe9     1.815   2_665 S
Fe9    O7      1.815   2_464 S
Fe9    O3      1.815   1_455 S
Fe9    O12     1.815   2_464 S
C25    C26     1.400   .     A
C25    C30     1.400   .     A
C25    H1      1.082   .     S
C26    C27     1.395   .     A
C26    O25     1.388   .     S
C27    C28     1.400   .     A
C27    O26     1.387   .     S
C28    C29     1.400   .     A
C28    H2      1.082   .     S
C29    C30     1.395   .     A
C29    O27     1.388   .     S
C30    O28     1.387   .     S
C31    C32     1.400   .     A
C31    C36     1.400   .     A
C31    H3      1.082   .     S
C32    C33     1.395   .     A
C32    O29     1.387   .     S
C33    C34     1.400   .     A
C33    O30     1.388   .     S
C34    C35     1.400   .     A
C34    H4      1.082   .     S
C35    C36     1.395   .     A
C35    O31     1.387   .     S
C36    O32     1.388   .     S
C49    C50     1.399   1_545 A
C49    C54     1.399   1_655 A
C49    H9      1.083   .     S
C50    C49     1.399   1_565 A
C50    C51     1.396   .     A
C50    O41     1.387   .     S
C51    C52     1.399   1_655 A
C51    O42     1.388   .     S
C52    C51     1.399   1_455 A
C52    C53     1.399   1_565 A
C52    H10     1.083   .     S
C53    C52     1.399   1_545 A
C53    C54     1.396   .     A
C53    O43     1.387   .     S
C54    C49     1.399   1_455 A
C54    O44     1.388   .     S
C55    C56     1.399   .     A
C55    C60     1.399   1_545 A
C55    H11     1.083   .     S
C56    C57     1.396   .     A
C56    O45     1.388   .     S
C57    C58     1.399   1_545 A
C57    O46     1.387   .     S
C58    C57     1.399   1_565 A
C58    C59     1.399   .     A
C58    H12     1.083   .     S
C59    C60     1.396   .     A
C59    O47     1.388   .     S
C60    C55     1.399   1_565 A
C60    O48     1.387   .     S
C73    C74     1.398   .     A
C73    C78     1.394   .     A
C73    O57     1.381   .     S
C74    C75     1.409   .     A
C74    O58     1.394   .     S
C75    C76     1.407   .     A
C75    H17     1.082   .     S
C76    C77     1.377   .     A
C76    O59     1.388   .     S
C77    C78     1.392   .     A
C77    O60     1.374   .     S
C78    H18     1.083   .     S
O59    Fe11    1.822   .     S
O60    Fe11    1.804   .     S
C79    C80     1.398   .     A
C79    C84     1.409   .     A
C79    O61     1.394   .     S
C80    C81     1.394   .     A
C80    O62     1.381   .     S
C81    C82     1.392   .     A
C81    H19     1.083   .     S
C82    C83     1.377   .     A
C82    O63     1.374   .     S
C83    C84     1.407   .     A
C83    O64     1.388   .     S
C84    H20     1.082   .     S
O63    Fe12    1.804   .     S
O64    Fe12    1.822   .     S
C85    C86     1.398   .     A
C85    C90     1.394   .     A
C85    O65     1.381   .     S
C86    C87     1.409   .     A
C86    O66     1.394   .     S
C87    C88     1.407   .     A
C87    H21     1.082   .     S
C88    C89     1.377   .     A
C88    O67     1.388   .     S
C89    C90     1.392   .     A
C89    O68     1.374   .     S
C90    H22     1.083   .     S
O67    Fe13    1.822   .     S
O68    Fe13    1.804   .     S
C91    C92     1.398   .     A
C91    C96     1.409   .     A
C91    O69     1.394   .     S
C92    C93     1.394   .     A
C92    O70     1.381   .     S
C93    C94     1.392   .     A
C93    H23     1.083   .     S
C94    C95     1.377   .     A
C94    O71     1.374   .     S
C95    C96     1.407   .     A
C95    O72     1.388   .     S
C96    H24     1.082   .     S
O71    Fe14    1.804   .     S
O72    Fe14    1.822   .     S
