data_etj-TN_O-Feoct
_audit_creation_date              2021-11-06
_audit_creation_method            'Materials Studio'
_symmetry_space_group_name_H-M    'P42/NNM'
_symmetry_Int_Tables_number       134
_symmetry_cell_setting            tetragonal
loop_
_symmetry_equiv_pos_as_xyz
  x,y,z
  -x,-y,z
  -y+1/2,x+1/2,z+1/2
  y+1/2,-x+1/2,z+1/2
  -x,y,-z
  x,-y,-z
  y+1/2,x+1/2,-z+1/2
  -y+1/2,-x+1/2,-z+1/2
  -x+1/2,-y+1/2,-z+1/2
  x+1/2,y+1/2,-z+1/2
  y,-x,-z
  -y,x,-z
  x+1/2,-y+1/2,z+1/2
  -x+1/2,y+1/2,z+1/2
  -y,-x,z
  y,x,z
_cell_length_a                    28.6898
_cell_length_b                    28.6898
_cell_length_c                    51.5953
_cell_angle_alpha                 90.0000
_cell_angle_beta                  90.0000
_cell_angle_gamma                 90.0000
loop_
_atom_site_label
_atom_site_type_symbol
_atom_site_fract_x
_atom_site_fract_y
_atom_site_fract_z
_atom_site_U_iso_or_equiv
_atom_site_adp_type
_atom_site_occupancy
C1     C     0.75737  -0.17185  -0.08612   0.00000  Uiso   1.00
C2     C     0.78070  -0.18405  -0.06266   0.00000  Uiso   1.00
C5     C     0.80425  -0.23108  -0.10962   0.00000  Uiso   1.00
C7     C     0.86424   0.72296  -0.08523   0.00000  Uiso   1.00
C8     C     0.88720   0.71144  -0.06214   0.00000  Uiso   1.00
C9     C     0.87460   0.73446  -0.03922   0.00000  Uiso   1.00
C10    C     0.83982  -0.23185  -0.03959   0.00000  Uiso   1.00
C15    C     0.74585  -0.18550  -0.13335   0.00000  Uiso   1.00
C16    C     0.75691  -0.20844  -0.15639   0.00000  Uiso   1.00
C19    C     0.80270   0.73360  -0.17963   0.00000  Uiso   1.00
C20    C     0.77916   0.74535  -0.20239   0.00000  Uiso   1.00
C23    C     0.89716   0.72370  -0.01588   0.00000  Uiso   1.00
C24    C     0.93204   0.69019  -0.01544   0.00000  Uiso   1.00
C25    C     0.94500   0.66680  -0.03792   0.00000  Uiso   1.00
C26    C     0.92273   0.67724  -0.06145   0.00000  Uiso   1.00
H1     H     0.87591   0.70434  -0.10209   0.00000  Uiso   1.00
H2     H     0.83271  -0.21625  -0.02112   0.00000  Uiso   1.00
H5     H     0.71866  -0.15990  -0.13483   0.00000  Uiso   1.00
H7     H     0.82926   0.70677  -0.18013   0.00000  Uiso   1.00
O1     O     0.78810   0.72423  -0.22592   0.00000  Uiso   1.00
H9     H     0.88789   0.74126   0.00200   0.00000  Uiso   1.00
O3     O     0.95457   0.67955   0.00746   0.00000  Uiso   1.00
O4     O     0.98024   0.63346  -0.03604   0.00000  Uiso   1.00
H10    H     0.93304   0.65895  -0.07890   0.00000  Uiso   1.00
C242   C     0.45811  -0.02408  -0.00168   0.00000  Uiso   1.00
O49    O     0.41576  -0.04586  -0.00638   0.00000  Uiso   1.00
Fe1    Fe    0.36769  -0.00000   0.00000   0.00000  Uiso   1.00
Fe9    Cu    0.75000   0.75000   0.75000   0.00000  Uiso   1.00
C241   C     0.50000  -0.04898   0.00000   0.00000  Uiso   1.00
H97    H     0.50000  -0.08671   0.00000   0.00000  Uiso   1.00
loop_
_geom_bond_atom_site_label_1
_geom_bond_atom_site_label_2
_geom_bond_distance
_geom_bond_site_symmetry_2
_ccdc_geom_bond_type
C1     C2      1.427   .     A
C1     C5      1.432   16_645 A
C1     C7      1.431   16_545 A
C2     C2      1.430   16_645 A
C2     C10     1.420   16_645 A
C5     C1      1.432   16_645 A
C5     C5      1.433   16_645 A
C5     C15     1.423   16_645 A
C7     C1      1.431   16_655 A
C7     C8      1.401   .     A
C7     H1      1.074   .     S
C8     C9      1.402   .     A
C8     C26     1.416   .     A
C9     C10     1.389   1_565 A
C9     C23     1.402   .     A
C10    C9      1.389   1_545 A
C10    C2      1.420   16_645 A
C10    H2      1.072   .     S
C15    C5      1.423   16_645 A
C15    C16     1.395   .     A
C15    H5      1.074   .     S
C16    C16     1.406   16_645 A
C16    C19     1.410   16_545 A
C19    C16     1.410   16_655 A
C19    C20     1.396   .     A
C19    H7      1.084   .     S
C20    C20     1.372   16    A
C20    O1      1.381   .     S
C23    C24     1.388   .     A
C23    H9      1.084   .     S
C24    C25     1.391   .     A
C24    O3      1.381   .     S
C25    C26     1.404   .     A
C25    O4      1.395   .     S
C26    H10     1.083   .     S
O1     Fe9     1.812   1_554 S
O3     Fe1     1.919   11_665 S
O4     Fe1     1.944   11_665 S
C242   C241    1.401   .     A
C242   C242    1.393   6     A
C242   O49     1.387   .     S
O49    Fe1     1.934   .     S
Fe1    O3      1.919   15_665 S
Fe1    O3      1.919   12_645 S
Fe1    O4      1.944   15_665 S
Fe1    O4      1.944   12_645 S
Fe1    O49     1.934   6     S
Fe9    O1      1.812   1_556 S
Fe9    O1      1.812   8_665 S
Fe9    O1      1.812   9_665 S
Fe9    O1      1.812   16_556 S
C241   C242    1.401   5_655 A
C241   H97     1.082   .     S
