data_fjh-PcM_O-Feoct
_audit_creation_date              2021-11-06
_audit_creation_method            'Materials Studio'
_symmetry_space_group_name_H-M    'I4/MCM'
_symmetry_Int_Tables_number       140
_symmetry_cell_setting            tetragonal
loop_
_symmetry_equiv_pos_as_xyz
  x,y,z
  -x,-y,z
  -y,x,z
  y,-x,z
  -x,y,-z+1/2
  x,-y,-z+1/2
  y,x,-z+1/2
  -y,-x,-z+1/2
  -x,-y,-z
  x,y,-z
  y,-x,-z
  -y,x,-z
  x,-y,z+1/2
  -x,y,z+1/2
  -y,-x,z+1/2
  y,x,z+1/2
  x+1/2,y+1/2,z+1/2
  -x+1/2,-y+1/2,z+1/2
  -y+1/2,x+1/2,z+1/2
  y+1/2,-x+1/2,z+1/2
  -x+1/2,y+1/2,-z
  x+1/2,-y+1/2,-z
  y+1/2,x+1/2,-z
  -y+1/2,-x+1/2,-z
  -x+1/2,-y+1/2,-z+1/2
  x+1/2,y+1/2,-z+1/2
  y+1/2,-x+1/2,-z+1/2
  -y+1/2,x+1/2,-z+1/2
  x+1/2,-y+1/2,z
  -x+1/2,y+1/2,z
  -y+1/2,-x+1/2,z
  y+1/2,x+1/2,z
_cell_length_a                    36.2049
_cell_length_b                    36.2049
_cell_length_c                    25.6006
_cell_angle_alpha                 90.0000
_cell_angle_beta                  90.0000
_cell_angle_gamma                 90.0000
loop_
_atom_site_label
_atom_site_type_symbol
_atom_site_fract_x
_atom_site_fract_y
_atom_site_fract_z
_atom_site_U_iso_or_equiv
_atom_site_adp_type
_atom_site_occupancy
C1     C     0.96075   0.14477   0.74999   0.00000  Uiso   1.00
C2     C     0.98056   0.17818   0.74999   0.00000  Uiso   1.00
C5     C     0.01880   0.11205   0.75000   0.00000  Uiso   1.00
C7     C     0.97049   0.07558   0.75000   0.00000  Uiso   1.00
H1     H     0.93085   0.14446   0.74998   0.00000  Uiso   1.00
O1     O     0.96251   0.21198   0.74995   0.00000  Uiso   1.00
C129   C     0.03297   0.28301   0.60552   0.00000  Uiso   1.00
C130   C     0.02617   0.27620   0.65874   0.00000  Uiso   1.00
C131   C     0.04563   0.29563   0.69762   0.00000  Uiso   1.00
C132   C     0.07224   0.32224   0.68402   0.00000  Uiso   1.00
C133   C     0.07836   0.32839   0.63085   0.00000  Uiso   1.00
C134   C     0.05955   0.30959   0.59326   0.00000  Uiso   1.00
C135   C     0.07243   0.32248   0.54607   0.00000  Uiso   1.00
N33    N     0.09880   0.34885   0.55235   0.00000  Uiso   1.00
C136   C     0.10195   0.35198   0.60509   0.00000  Uiso   1.00
H33    H     0.01817   0.26823   0.57531   0.00000  Uiso   1.00
O33    O     0.00024   0.25029   0.67449   0.00000  Uiso   1.00
O34    O     0.03778   0.28773   0.74947   0.00000  Uiso   1.00
H34    H     0.08735   0.33734   0.71361   0.00000  Uiso   1.00
Fe1    Fe   -0.00000   0.25000   0.75000   0.00000  Uiso   1.00
N1     N    -0.00000   0.05235   0.75000   0.00000  Uiso   1.00
N2     N     0.06489   0.06489   0.75000   0.00000  Uiso   1.00
Fe17   Ni   -0.00000  -0.00000   0.75000   0.00000  Uiso   1.00
N34    N     0.12499   0.37501   0.62978   0.00000  Uiso   1.00
N37    N     0.18986   0.43992   0.50000   0.00000  Uiso   1.00
Fe21   Ni    0.12498   0.37502   0.50000   0.00000  Uiso   1.00
loop_
_geom_bond_atom_site_label_1
_geom_bond_atom_site_label_2
_geom_bond_distance
_geom_bond_site_symmetry_2
_ccdc_geom_bond_type
C1     C2      1.407   .     A
C1     C5      1.397   5_656 A
C1     H1      1.083   .     S
C2     C2      1.408   5_756 A
C2     O1      1.387   .     S
C5     C1      1.397   5_656 A
C5     C5      1.361   5_556 A
C5     C7      1.376   5_656 A
C7     C5      1.376   5_656 A
C7     N1      1.360   1_655 A
C7     N2      1.338   3_655 A
O1     Fe1     1.933   1_655 S
C129   C130    1.407   .     A
C129   C134    1.397   .     A
C129   H33     1.083   .     S
C130   C131    1.408   .     A
C130   O33     1.387   .     S
C131   C132    1.407   .     A
C131   O34     1.387   .     S
C132   C133    1.397   .     A
C132   H34     1.083   .     S
C133   C134    1.361   .     A
C133   C136    1.376   .     A
C134   C135    1.376   .     A
C135   N33     1.360   .     A
C135   N37     1.338   24_556 A
N33    C136    1.360   .     A
N33    Fe21    1.895   .     S
C136   N34     1.338   .     A
O33    Fe1     1.933   .     S
O34    Fe1     1.933   .     S
Fe1    O1      1.933   1_455 S
Fe1    O1      1.933   5_656 S
Fe1    O33     1.933   5_556 S
Fe1    O34     1.933   5_556 S
N1     C7      1.360   1_455 A
N1     C7      1.360   5_656 A
N1     Fe17    1.895   .     S
N2     C7      1.338   5_656 A
N2     C7      1.338   4_565 A
Fe17   N1      1.895   2     S
Fe17   N1      1.895   3     S
Fe17   N1      1.895   4     S
N34    C136    1.338   31    A
N37    C135    1.338   31    A
N37    C135    1.338   24_556 A
Fe21   N33     1.895   31    S
Fe21   N33     1.895   24_556 S
Fe21   N33     1.895   10_556 S
