data_fjh-PcMN_O-Feoct
_audit_creation_date              2021-11-06
_audit_creation_method            'Materials Studio'
_symmetry_space_group_name_H-M    'I4/MCM'
_symmetry_Int_Tables_number       140
_symmetry_cell_setting            tetragonal
loop_
_symmetry_equiv_pos_as_xyz
  x,y,z
  -x,-y,z
  -y,x,z
  y,-x,z
  -x,y,-z+1/2
  x,-y,-z+1/2
  y,x,-z+1/2
  -y,-x,-z+1/2
  -x,-y,-z
  x,y,-z
  y,-x,-z
  -y,x,-z
  x,-y,z+1/2
  -x,y,z+1/2
  -y,-x,z+1/2
  y,x,z+1/2
  x+1/2,y+1/2,z+1/2
  -x+1/2,-y+1/2,z+1/2
  -y+1/2,x+1/2,z+1/2
  y+1/2,-x+1/2,z+1/2
  -x+1/2,y+1/2,-z
  x+1/2,-y+1/2,-z
  y+1/2,x+1/2,-z
  -y+1/2,-x+1/2,-z
  -x+1/2,-y+1/2,-z+1/2
  x+1/2,y+1/2,-z+1/2
  y+1/2,-x+1/2,-z+1/2
  -y+1/2,x+1/2,-z+1/2
  x+1/2,-y+1/2,z
  -x+1/2,y+1/2,z
  -y+1/2,-x+1/2,z
  y+1/2,x+1/2,z
_cell_length_a                    45.9308
_cell_length_b                    45.9308
_cell_length_c                    32.4779
_cell_angle_alpha                 90.0000
_cell_angle_beta                  90.0000
_cell_angle_gamma                 90.0000
loop_
_atom_site_label
_atom_site_type_symbol
_atom_site_fract_x
_atom_site_fract_y
_atom_site_fract_z
_atom_site_U_iso_or_equiv
_atom_site_adp_type
_atom_site_occupancy
C1     C     0.96904   0.11402   0.25000   0.00000  Uiso   1.00
C2     C     0.98441   0.14063   0.25000   0.00000  Uiso   1.00
C5     C     0.01479   0.08832   0.25000   0.00000  Uiso   1.00
C7     C     0.97675   0.05957   0.25000   0.00000  Uiso   1.00
H1     H     0.94546   0.11338   0.24999   0.00000  Uiso   1.00
C33    C     0.83279   0.03066   0.25001   0.00000  Uiso   1.00
C34    C     0.80662   0.01517   0.25001   0.00000  Uiso   1.00
H9     H     0.83233   0.05425   0.25002   0.00000  Uiso   1.00
O1     O     0.78000   0.02947   0.25004   0.00000  Uiso   1.00
C193   C     0.05248   0.30255   0.08306   0.00000  Uiso   1.00
C194   C     0.04686   0.29691   0.12503   0.00000  Uiso   1.00
C195   C     0.06246   0.31250   0.15622   0.00000  Uiso   1.00
C196   C     0.08344   0.33349   0.14497   0.00000  Uiso   1.00
C197   C     0.08820   0.33827   0.10311   0.00000  Uiso   1.00
C198   C     0.07341   0.32348   0.07353   0.00000  Uiso   1.00
C199   C     0.08355   0.33363   0.03632   0.00000  Uiso   1.00
N33    N     0.10433   0.35441   0.04126   0.00000  Uiso   1.00
C200   C     0.10680   0.35688   0.08282   0.00000  Uiso   1.00
H65    H     0.04100   0.29108   0.05885   0.00000  Uiso   1.00
H66    H     0.09556   0.34560   0.16792   0.00000  Uiso   1.00
C225   C     0.02604   0.27609   0.86345   0.00000  Uiso   1.00
C226   C     0.02071   0.27074   0.82179   0.00000  Uiso   1.00
C227   C     0.03589   0.28589   0.79145   0.00000  Uiso   1.00
C228   C     0.05672   0.30673   0.80213   0.00000  Uiso   1.00
H73    H     0.01401   0.26407   0.88658   0.00000  Uiso   1.00
O33    O     0.00024   0.25029   0.80946   0.00000  Uiso   1.00
O34    O     0.02975   0.27971   0.75053   0.00000  Uiso   1.00
H74    H     0.06829   0.31829   0.77808   0.00000  Uiso   1.00
Fe1    Fe    0.00000   0.25000   0.25000   0.00000  Uiso   1.00
N1     N    -0.00000   0.04126   0.25000   0.00000  Uiso   1.00
N2     N     0.05114   0.05114   0.25000   0.00000  Uiso   1.00
Fe17   Ni   -0.00000   0.00000   0.25000   0.00000  Uiso   1.00
N34    N     0.12497   0.37503   0.10228   0.00000  Uiso   1.00
N37    N     0.17610   0.42618  -0.00000   0.00000  Uiso   1.00
Fe21   Ni    0.12495   0.37505  -0.00000   0.00000  Uiso   1.00
loop_
_geom_bond_atom_site_label_1
_geom_bond_atom_site_label_2
_geom_bond_distance
_geom_bond_site_symmetry_2
_ccdc_geom_bond_type
C1     C2      1.411   .     A
C1     C5      1.394   5_655 A
C1     H1      1.084   .     S
C2     C2      1.432   5_755 A
C2     C33     1.404   8_665 A
C5     C1      1.394   5_655 A
C5     C5      1.359   5     A
C5     C7      1.377   5_655 A
C7     C5      1.377   5_655 A
C7     N1      1.359   1_655 A
C7     N2      1.338   3_655 A
C33    C2      1.404   8_665 A
C33    C34     1.397   .     A
C33    H9      1.084   .     S
C34    C34     1.394   6     A
C34    O1      1.388   .     S
O1     Fe1     1.931   3_655 S
C193   C194    1.411   .     A
C193   C198    1.394   .     A
C193   H65     1.084   .     S
C194   C195    1.432   .     A
C194   C225    1.404   10_556 A
C195   C196    1.411   .     A
C195   C228    1.404   10_556 A
C196   C197    1.394   .     A
C196   H66     1.084   .     S
C197   C198    1.359   .     A
C197   C200    1.377   .     A
C198   C199    1.377   .     A
C199   N33     1.359   .     A
C199   N37     1.338   24    A
N33    C200    1.359   .     A
N33    Fe21    1.895   .     S
C200   N34     1.338   .     A
C225   C194    1.404   10_556 A
C225   C226    1.397   .     A
C225   H73     1.084   .     S
C226   C227    1.394   .     A
C226   O33     1.388   .     S
C227   C228    1.397   .     A
C227   O34     1.388   .     S
C228   C195    1.404   10_556 A
C228   H74     1.084   .     S
O33    Fe1     1.931   10_556 S
O34    Fe1     1.931   10_556 S
Fe1    O1      1.931   8_565 S
Fe1    O1      1.931   4_565 S
Fe1    O33     1.931   10_556 S
Fe1    O33     1.931   14_554 S
Fe1    O34     1.931   10_556 S
Fe1    O34     1.931   14_554 S
N1     C7      1.359   1_455 A
N1     C7      1.359   5_655 A
N1     Fe17    1.895   .     S
N2     C7      1.338   5_655 A
N2     C7      1.338   4_565 A
Fe17   N1      1.895   2     S
Fe17   N1      1.895   3     S
Fe17   N1      1.895   4     S
N34    C200    1.338   31    A
N37    C199    1.338   31    A
N37    C199    1.338   24    A
Fe21   N33     1.895   31    S
Fe21   N33     1.895   24    S
Fe21   N33     1.895   10    S
