data_fjh-spacer-PcMN_O-Feoct
_audit_creation_date              2021-11-06
_audit_creation_method            'Materials Studio'
_symmetry_space_group_name_H-M    'I4/MCM'
_symmetry_Int_Tables_number       140
_symmetry_cell_setting            tetragonal
loop_
_symmetry_equiv_pos_as_xyz
  x,y,z
  -x,-y,z
  -y,x,z
  y,-x,z
  -x,y,-z+1/2
  x,-y,-z+1/2
  y,x,-z+1/2
  -y,-x,-z+1/2
  -x,-y,-z
  x,y,-z
  y,-x,-z
  -y,x,-z
  x,-y,z+1/2
  -x,y,z+1/2
  -y,-x,z+1/2
  y,x,z+1/2
  x+1/2,y+1/2,z+1/2
  -x+1/2,-y+1/2,z+1/2
  -y+1/2,x+1/2,z+1/2
  y+1/2,-x+1/2,z+1/2
  -x+1/2,y+1/2,-z
  x+1/2,-y+1/2,-z
  y+1/2,x+1/2,-z
  -y+1/2,-x+1/2,-z
  -x+1/2,-y+1/2,-z+1/2
  x+1/2,y+1/2,-z+1/2
  y+1/2,-x+1/2,-z+1/2
  -y+1/2,x+1/2,-z+1/2
  x+1/2,-y+1/2,z
  -x+1/2,y+1/2,z
  -y+1/2,-x+1/2,z
  y+1/2,x+1/2,z
_cell_length_a                    75.6020
_cell_length_b                    75.6020
_cell_length_c                    53.4594
_cell_angle_alpha                 90.0000
_cell_angle_beta                  90.0000
_cell_angle_gamma                 90.0000
loop_
_atom_site_label
_atom_site_type_symbol
_atom_site_fract_x
_atom_site_fract_y
_atom_site_fract_z
_atom_site_U_iso_or_equiv
_atom_site_adp_type
_atom_site_occupancy
C1     C     0.98118   0.06927  -0.25000   0.00000  Uiso   1.00
C2     C     0.99051   0.08543  -0.25000   0.00000  Uiso   1.00
C5     C     0.00899   0.05366  -0.25000   0.00000  Uiso   1.00
C7     C     0.98587   0.03619  -0.25000   0.00000  Uiso   1.00
H1     H     0.96686   0.06888  -0.25000   0.00000  Uiso   1.00
C33    C     0.89839   0.01864  -0.25000   0.00000  Uiso   1.00
C34    C     0.88258   0.00909  -0.25000   0.00000  Uiso   1.00
H9     H     0.89804   0.03297  -0.24999   0.00000  Uiso   1.00
O1     O     0.86618   0.01713  -0.24999   0.00000  Uiso   1.00
C193   C     0.08095   0.33096  -0.44955   0.00000  Uiso   1.00
C194   C     0.07754   0.32754  -0.42405   0.00000  Uiso   1.00
C195   C     0.08703   0.33703  -0.40508   0.00000  Uiso   1.00
C196   C     0.09978   0.34977  -0.41192   0.00000  Uiso   1.00
C197   C     0.10266   0.35266  -0.43735   0.00000  Uiso   1.00
C198   C     0.09367   0.34368  -0.45533   0.00000  Uiso   1.00
C199   C     0.09984   0.34985  -0.47794   0.00000  Uiso   1.00
N33    N     0.11247   0.36247  -0.47493   0.00000  Uiso   1.00
C200   C     0.11397   0.36397  -0.44969   0.00000  Uiso   1.00
H65    H     0.07398   0.32400  -0.46426   0.00000  Uiso   1.00
H66    H     0.10714   0.35712  -0.39798   0.00000  Uiso   1.00
C225   C     0.06487   0.31488   0.41703   0.00000  Uiso   1.00
C226   C     0.06174   0.31175   0.39167   0.00000  Uiso   1.00
C227   C     0.07084   0.32083   0.37349   0.00000  Uiso   1.00
C228   C     0.08352   0.33351   0.37975   0.00000  Uiso   1.00
H73    H     0.05753   0.30754   0.43100   0.00000  Uiso   1.00
O33    O     0.04952   0.29953   0.38331   0.00000  Uiso   1.00
O34    O     0.06666   0.31665   0.34904   0.00000  Uiso   1.00
H74    H     0.09051   0.34050   0.36507   0.00000  Uiso   1.00
C577   C     0.99075   0.21562  -0.25001   0.00000  Uiso   1.00
C579   C     0.01860   0.19962  -0.24999   0.00000  Uiso   1.00
C580   C     0.00911   0.18374  -0.25000   0.00000  Uiso   1.00
O97    O     0.98207   0.23178  -0.25003   0.00000  Uiso   1.00
H193   H     0.03292   0.19954  -0.24998   0.00000  Uiso   1.00
O99    O     0.01715   0.16734  -0.24999   0.00000  Uiso   1.00
C673   C     0.01256   0.26258  -0.29363   0.00000  Uiso   1.00
C674   C     0.02182   0.27181  -0.27514   0.00000  Uiso   1.00
C675   C     0.03450   0.28449  -0.28178   0.00000  Uiso   1.00
C676   C     0.03769   0.28768  -0.30716   0.00000  Uiso   1.00
C677   C     0.02857   0.27858  -0.32537   0.00000  Uiso   1.00
C678   C     0.01588   0.26590  -0.31898   0.00000  Uiso   1.00
O161   O     0.00013   0.25016  -0.28615   0.00000  Uiso   1.00
O162   O     0.01809   0.26806  -0.25029   0.00000  Uiso   1.00
H225   H     0.04170   0.29168  -0.26754   0.00000  Uiso   1.00
O163   O     0.04991   0.29990  -0.31551   0.00000  Uiso   1.00
O164   O     0.03275   0.28276  -0.34981   0.00000  Uiso   1.00
H226   H     0.00876   0.25878  -0.33338   0.00000  Uiso   1.00
Fe45   Cu    0.04971   0.29971  -0.34942   0.00000  Uiso   1.00
Fe1    Fe    0.00000   0.25000  -0.25000   0.00000  Uiso   1.00
N1     N     0.00000   0.02507  -0.25000   0.00000  Uiso   1.00
Fe29   Cu    0.00000   0.15058  -0.25000   0.00000  Uiso   1.00
N2     N     0.03107   0.03107  -0.25000   0.00000  Uiso   1.00
Fe17   Ni    0.00000   0.00000  -0.25000   0.00000  Uiso   1.00
N34    N     0.12500   0.37500  -0.43786   0.00000  Uiso   1.00
N37    N     0.15606   0.40607  -0.50000   0.00000  Uiso   1.00
Fe21   Ni    0.12500   0.37500  -0.50000   0.00000  Uiso   1.00
loop_
_geom_bond_atom_site_label_1
_geom_bond_atom_site_label_2
_geom_bond_distance
_geom_bond_site_symmetry_2
_ccdc_geom_bond_type
C1     C2      1.411   .     A
C1     C5      1.394   5_654 A
C1     H1      1.084   .     S
C2     C2      1.435   5_754 A
C2     C33     1.405   8_664 A
C5     C1      1.394   5_654 A
C5     C5      1.359   5_554 A
C5     C7      1.377   5_654 A
C7     C5      1.377   5_654 A
C7     N1      1.359   1_655 A
C7     N2      1.338   3_655 A
C33    C2      1.405   8_664 A
C33    C34     1.396   .     A
C33    H9      1.083   .     S
C34    C34     1.374   6_554 A
C34    O1      1.381   .     S
O1     Fe29    1.812   3_655 S
C193   C194    1.411   .     A
C193   C198    1.394   .     A
C193   H65     1.084   .     S
C194   C195    1.435   .     A
C194   C225    1.405   10    A
C195   C196    1.411   .     A
C195   C228    1.405   10    A
C196   C197    1.394   .     A
C196   H66     1.084   .     S
C197   C198    1.359   .     A
C197   C200    1.377   .     A
C198   C199    1.377   .     A
C199   N33     1.359   .     A
C199   N37     1.338   24_554 A
N33    C200    1.359   .     A
N33    Fe21    1.895   .     S
C200   N34     1.338   .     A
C225   C194    1.405   10    A
C225   C226    1.396   .     A
C225   H73     1.083   .     S
C226   C227    1.374   .     A
C226   O33     1.381   .     S
C227   C228    1.396   .     A
C227   O34     1.381   .     S
C228   C195    1.405   10    A
C228   H74     1.083   .     S
O33    Fe45    1.812   10    S
O34    Fe45    1.812   10    S
C577   C577    1.398   5_754 A
C577   C579    1.401   5_654 A
C577   O97     1.387   .     S
C579   C577    1.401   5_654 A
C579   C580    1.399   .     A
C579   H193    1.082   .     S
C580   C580    1.377   5_554 A
C580   O99     1.381   .     S
O97    Fe1     1.933   1_655 S
O99    Fe29    1.813   .     S
C673   C674    1.398   .     A
C673   C678    1.401   .     A
C673   O161    1.387   .     S
C674   C675    1.401   .     A
C674   O162    1.387   .     S
C675   C676    1.399   .     A
C675   H225    1.082   .     S
C676   C677    1.377   .     A
C676   O163    1.381   .     S
C677   C678    1.399   .     A
C677   O164    1.381   .     S
C678   H226    1.082   .     S
O161   Fe1     1.933   .     S
O162   Fe1     1.933   .     S
O163   Fe45    1.813   .     S
O164   Fe45    1.813   .     S
Fe45   O33     1.812   10    S
Fe45   O34     1.812   10    S
Fe1    O97     1.933   1_455 S
Fe1    O97     1.933   5_654 S
Fe1    O161    1.933   5_554 S
Fe1    O162    1.933   5_554 S
N1     C7      1.359   1_455 A
N1     C7      1.359   5_654 A
N1     Fe17    1.895   .     S
Fe29   O99     1.813   5_554 S
Fe29   O1      1.812   4_565 S
Fe29   O1      1.812   8_564 S
N2     C7      1.338   5_654 A
N2     C7      1.338   4_565 A
Fe17   N1      1.895   2     S
Fe17   N1      1.895   3     S
Fe17   N1      1.895   4     S
N34    C200    1.338   31    A
N37    C199    1.338   31    A
N37    C199    1.338   24_554 A
Fe21   N33     1.895   31    S
Fe21   N33     1.895   24_554 S
Fe21   N33     1.895   10_554 S
