data_fjh-spacer-PcM_O-Feoct
_audit_creation_date              2021-11-06
_audit_creation_method            'Materials Studio'
_symmetry_space_group_name_H-M    'I4/MCM'
_symmetry_Int_Tables_number       140
_symmetry_cell_setting            tetragonal
loop_
_symmetry_equiv_pos_as_xyz
  x,y,z
  -x,-y,z
  -y,x,z
  y,-x,z
  -x,y,-z+1/2
  x,-y,-z+1/2
  y,x,-z+1/2
  -y,-x,-z+1/2
  -x,-y,-z
  x,y,-z
  y,-x,-z
  -y,x,-z
  x,-y,z+1/2
  -x,y,z+1/2
  -y,-x,z+1/2
  y,x,z+1/2
  x+1/2,y+1/2,z+1/2
  -x+1/2,-y+1/2,z+1/2
  -y+1/2,x+1/2,z+1/2
  y+1/2,-x+1/2,z+1/2
  -x+1/2,y+1/2,-z
  x+1/2,-y+1/2,-z
  y+1/2,x+1/2,-z
  -y+1/2,-x+1/2,-z
  -x+1/2,-y+1/2,-z+1/2
  x+1/2,y+1/2,-z+1/2
  y+1/2,-x+1/2,-z+1/2
  -y+1/2,x+1/2,-z+1/2
  x+1/2,-y+1/2,z
  -x+1/2,y+1/2,z
  -y+1/2,-x+1/2,z
  y+1/2,x+1/2,z
_cell_length_a                    65.8841
_cell_length_b                    65.8841
_cell_length_c                    46.5854
_cell_angle_alpha                 90.0000
_cell_angle_beta                  90.0000
_cell_angle_gamma                 90.0000
loop_
_atom_site_label
_atom_site_type_symbol
_atom_site_fract_x
_atom_site_fract_y
_atom_site_fract_z
_atom_site_U_iso_or_equiv
_atom_site_adp_type
_atom_site_occupancy
C1     C     0.97842   0.07959   0.75000   0.00000  Uiso   1.00
C2     C     0.98946   0.09786   0.75000   0.00000  Uiso   1.00
C5     C     0.01035   0.06158   0.75000   0.00000  Uiso   1.00
C7     C     0.98378   0.04154   0.75000   0.00000  Uiso   1.00
H1     H     0.96199   0.07951   0.74999   0.00000  Uiso   1.00
O1     O     0.98029   0.11670   0.74999   0.00000  Uiso   1.00
C129   C     0.07441   0.32442   0.55801   0.00000  Uiso   1.00
C130   C     0.07080   0.32080   0.58733   0.00000  Uiso   1.00
C131   C     0.08134   0.33133   0.60840   0.00000  Uiso   1.00
C132   C     0.09600   0.34599   0.60118   0.00000  Uiso   1.00
C133   C     0.09938   0.34938   0.57193   0.00000  Uiso   1.00
C134   C     0.08903   0.33904   0.55124   0.00000  Uiso   1.00
C135   C     0.09612   0.34612   0.52532   0.00000  Uiso   1.00
N33    N     0.11061   0.36061   0.52878   0.00000  Uiso   1.00
C136   C     0.11235   0.36234   0.55776   0.00000  Uiso   1.00
H33    H     0.06623   0.31625   0.54150   0.00000  Uiso   1.00
O33    O     0.05679   0.30680   0.59699   0.00000  Uiso   1.00
O34    O     0.07651   0.32650   0.63641   0.00000  Uiso   1.00
H34    H     0.10426   0.35424   0.61753   0.00000  Uiso   1.00
C385   C     0.98939   0.21054   0.74999   0.00000  Uiso   1.00
C387   C     0.02135   0.19218   0.75001   0.00000  Uiso   1.00
C388   C     0.01045   0.17396   0.75000   0.00000  Uiso   1.00
O97    O     0.97942   0.22909   0.74997   0.00000  Uiso   1.00
H97    H     0.03778   0.19209   0.75002   0.00000  Uiso   1.00
O99    O     0.01968   0.15514   0.75001   0.00000  Uiso   1.00
C481   C     0.01442   0.26443   0.69993   0.00000  Uiso   1.00
C482   C     0.02504   0.27503   0.72115   0.00000  Uiso   1.00
C483   C     0.03959   0.28957   0.71353   0.00000  Uiso   1.00
C484   C     0.04325   0.29324   0.68441   0.00000  Uiso   1.00
C485   C     0.03279   0.28279   0.66351   0.00000  Uiso   1.00
C486   C     0.01823   0.26824   0.67084   0.00000  Uiso   1.00
O161   O     1.00015   0.25018   0.70851   0.00000  Uiso   1.00
O162   O     0.02076   0.27073   0.74967   0.00000  Uiso   1.00
H129   H     0.04785   0.29782   0.72988   0.00000  Uiso   1.00
O163   O     0.05727   0.30726   0.67483   0.00000  Uiso   1.00
O164   O     0.03758   0.28759   0.63546   0.00000  Uiso   1.00
H130   H     0.01005   0.26007   0.65432   0.00000  Uiso   1.00
Fe45   Cu    0.05704   0.30704   0.63592   0.00000  Uiso   1.00
Fe1    Fe    0.00000   0.25000   0.75000   0.00000  Uiso   1.00
N1     N     0.00000   0.02878   0.75000   0.00000  Uiso   1.00
Fe29   Cu    0.00000   0.13592   0.75000   0.00000  Uiso   1.00
N2     N     0.03566   0.03566   0.75000   0.00000  Uiso   1.00
Fe17   Ni    0.00000   0.00000   0.75000   0.00000  Uiso   1.00
N34    N     0.12501   0.37499   0.57133   0.00000  Uiso   1.00
N37    N     0.16066   0.41067   0.50000   0.00000  Uiso   1.00
Fe21   Ni    0.12500   0.37500   0.50000   0.00000  Uiso   1.00
loop_
_geom_bond_atom_site_label_1
_geom_bond_atom_site_label_2
_geom_bond_distance
_geom_bond_site_symmetry_2
_ccdc_geom_bond_type
C1     C2      1.406   .     A
C1     C5      1.399   5_656 A
C1     H1      1.082   .     S
C2     C2      1.388   5_756 A
C2     O1      1.381   .     S
C5     C1      1.399   5_656 A
C5     C5      1.363   5_556 A
C5     C7      1.376   5_656 A
C7     C5      1.376   5_656 A
C7     N1      1.360   1_655 A
C7     N2      1.338   3_655 A
O1     Fe29    1.814   1_655 S
C129   C130    1.406   .     A
C129   C134    1.399   .     A
C129   H33     1.082   .     S
C130   C131    1.388   .     A
C130   O33     1.381   .     S
C131   C132    1.406   .     A
C131   O34     1.381   .     S
C132   C133    1.399   .     A
C132   H34     1.082   .     S
C133   C134    1.363   .     A
C133   C136    1.376   .     A
C134   C135    1.376   .     A
C135   N33     1.360   .     A
C135   N37     1.338   24_556 A
N33    C136    1.360   .     A
N33    Fe21    1.896   .     S
C136   N34     1.338   .     A
O33    Fe45    1.814   .     S
O34    Fe45    1.814   .     S
C385   C385    1.398   5_756 A
C385   C387    1.401   5_656 A
C385   O97     1.387   .     S
C387   C385    1.401   5_656 A
C387   C388    1.399   .     A
C387   H97     1.082   .     S
C388   C388    1.377   5_556 A
C388   O99     1.381   .     S
O97    Fe1     1.933   1_655 S
O99    Fe29    1.813   .     S
C481   C482    1.398   .     A
C481   C486    1.401   .     A
C481   O161    1.387   1_455 S
C482   C483    1.401   .     A
C482   O162    1.387   .     S
C483   C484    1.399   .     A
C483   H129    1.082   .     S
C484   C485    1.377   .     A
C484   O163    1.381   .     S
C485   C486    1.399   .     A
C485   O164    1.381   .     S
C486   H130    1.082   .     S
O161   C481    1.387   1_655 S
O161   Fe1     1.933   1_655 S
O162   Fe1     1.933   .     S
O163   Fe45    1.813   .     S
O164   Fe45    1.813   .     S
Fe1    O97     1.933   1_455 S
Fe1    O97     1.933   5_656 S
Fe1    O161    1.933   1_455 S
Fe1    O161    1.933   5_656 S
Fe1    O162    1.933   5_556 S
N1     C7      1.360   1_455 A
N1     C7      1.360   5_656 A
N1     Fe17    1.896   .     S
Fe29   O99     1.813   5_556 S
Fe29   O1      1.814   5_656 S
Fe29   O1      1.814   1_455 S
N2     C7      1.338   5_656 A
N2     C7      1.338   4_565 A
Fe17   N1      1.896   2     S
Fe17   N1      1.896   3     S
Fe17   N1      1.896   4     S
N34    C136    1.338   31    A
N37    C135    1.338   31    A
N37    C135    1.338   24_556 A
Fe21   N33     1.896   31    S
Fe21   N33     1.896   24_556 S
Fe21   N33     1.896   10_556 S
