data_hof-B_O-PcM_O-Zntet
_audit_creation_date              2021-11-06
_audit_creation_method            'Materials Studio'
_symmetry_space_group_name_H-M    'P1'
_symmetry_Int_Tables_number       1
_symmetry_cell_setting            triclinic
loop_
_symmetry_equiv_pos_as_xyz
  x,y,z
_cell_length_a                    40.3002
_cell_length_b                    40.3008
_cell_length_c                    12.8351
_cell_angle_alpha                 90.0018
_cell_angle_beta                  89.9993
_cell_angle_gamma                 90.0000
loop_
_atom_site_label
_atom_site_type_symbol
_atom_site_fract_x
_atom_site_fract_y
_atom_site_fract_z
_atom_site_U_iso_or_equiv
_atom_site_adp_type
_atom_site_occupancy
C1     C     0.88321   0.93326   0.00016   0.00000  Uiso   1.00
C2     C     0.87434   0.89951   0.00016   0.00000  Uiso   1.00
C3     C     0.89937   0.87448   0.00015   0.00000  Uiso   1.00
C4     C     0.93313   0.88335   0.00014   0.00000  Uiso   1.00
C5     C     0.94085   0.91711   0.00014   0.00000  Uiso   1.00
C6     C     0.91697   0.94098   0.00015   0.00000  Uiso   1.00
C7     C     0.93334   0.97097   0.00015   0.00000  Uiso   1.00
N1     N     0.96684   0.96698   0.00014   0.00000  Uiso   1.00
C8     C     0.97083   0.93348   0.00014   0.00000  Uiso   1.00
N2     N     0.00010   0.91780   1.00012   0.00000  Uiso   1.00
C9     C     0.02936   0.93348   1.00012   0.00000  Uiso   1.00
N3     N     0.03335   0.96698   0.00012   0.00000  Uiso   1.00
C10    C     0.06685   0.97097   0.00010   0.00000  Uiso   1.00
C11    C     0.08322   0.94099   0.00008   0.00000  Uiso   1.00
C12    C     0.05935   0.91712   1.00009   0.00000  Uiso   1.00
N4     N     0.03335   0.03349   0.00012   0.00000  Uiso   1.00
C13    C     0.06685   0.02950   0.00010   0.00000  Uiso   1.00
N5     N     0.08253   0.00024   0.00009   0.00000  Uiso   1.00
C14    C     0.08322   0.05949   0.00010   0.00000  Uiso   1.00
C15    C     0.05934   0.08336   0.00011   0.00000  Uiso   1.00
C16    C     0.02936   0.06699   0.00012   0.00000  Uiso   1.00
C17    C     0.06707   0.88335   1.00006   0.00000  Uiso   1.00
C18    C     0.10082   0.87449   1.00002   0.00000  Uiso   1.00
C19    C     0.12585   0.89952   1.00000   0.00000  Uiso   1.00
C20    C     0.11698   0.93327   0.00004   0.00000  Uiso   1.00
C21    C     0.06706   0.11712   1.00011   0.00000  Uiso   1.00
C22    C     0.10082   0.12599   0.00010   0.00000  Uiso   1.00
C23    C     0.12585   0.10096   0.00009   0.00000  Uiso   1.00
C24    C     0.11698   0.06721   0.00009   0.00000  Uiso   1.00
N6     N     0.96684   0.03349   0.00013   0.00000  Uiso   1.00
C25    C     0.97083   0.06699   1.00012   0.00000  Uiso   1.00
N7     N     0.00009   0.08267   1.00012   0.00000  Uiso   1.00
C26    C     0.94084   0.08335   1.00011   0.00000  Uiso   1.00
C27    C     0.91697   0.05948   0.00011   0.00000  Uiso   1.00
C28    C     0.93334   0.02950   0.00012   0.00000  Uiso   1.00
C29    C     0.88321   0.06720   0.00007   0.00000  Uiso   1.00
C30    C     0.87434   0.10096   1.00004   0.00000  Uiso   1.00
C31    C     0.89937   0.12599   1.00004   0.00000  Uiso   1.00
C32    C     0.93313   0.11712   1.00008   0.00000  Uiso   1.00
N8     N     0.91766   0.00023   0.00013   0.00000  Uiso   1.00
H1     H     0.86450   0.95254   0.00017   0.00000  Uiso   1.00
O1     O     0.84102   0.89015   0.00016   0.00000  Uiso   1.00
O2     O     0.89002   0.84116   0.00015   0.00000  Uiso   1.00
H2     H     0.95240   0.86464   1.00013   0.00000  Uiso   1.00
H3     H     0.04780   0.86464   1.00007   0.00000  Uiso   1.00
O3     O     0.11018   0.84117   0.99999   0.00000  Uiso   1.00
O4     O     0.15917   0.89016   0.99996   0.00000  Uiso   1.00
H4     H     0.13570   0.95255   0.00002   0.00000  Uiso   1.00
H5     H     0.04779   0.13583   1.00011   0.00000  Uiso   1.00
O5     O     0.11017   0.15931   0.00010   0.00000  Uiso   1.00
O6     O     0.15917   0.11032   0.00008   0.00000  Uiso   1.00
H6     H     0.13569   0.04793   0.00009   0.00000  Uiso   1.00
H7     H     0.86449   0.04793   0.00006   0.00000  Uiso   1.00
O7     O     0.84102   0.11032   1.00000   0.00000  Uiso   1.00
O8     O     0.89002   0.15931   1.00001   0.00000  Uiso   1.00
H8     H     0.95240   0.13583   1.00008   0.00000  Uiso   1.00
Ni1    Ni    0.00010   0.00024   0.00011   0.00000  Uiso   1.00
C33    C     0.38321   0.56720   0.49983   0.00000  Uiso   1.00
C34    C     0.37434   0.60095   0.49986   0.00000  Uiso   1.00
C35    C     0.39937   0.62598   0.49988   0.00000  Uiso   1.00
C36    C     0.43312   0.61711   0.49986   0.00000  Uiso   1.00
C37    C     0.44084   0.58335   0.49983   0.00000  Uiso   1.00
C38    C     0.41697   0.55948   0.49981   0.00000  Uiso   1.00
C39    C     0.43334   0.52950   0.49980   0.00000  Uiso   1.00
N9     N     0.46684   0.53348   0.49981   0.00000  Uiso   1.00
C40    C     0.47083   0.56698   0.49982   0.00000  Uiso   1.00
N10    N     0.50009   0.58266   0.49985   0.00000  Uiso   1.00
C41    C     0.52936   0.56698   0.49985   0.00000  Uiso   1.00
N11    N     0.53335   0.53349   0.49983   0.00000  Uiso   1.00
C42    C     0.56685   0.52950   0.49986   0.00000  Uiso   1.00
C43    C     0.58322   0.55948   0.49990   0.00000  Uiso   1.00
C44    C     0.55934   0.58335   0.49989   0.00000  Uiso   1.00
N12    N     0.53335   0.46698   0.49984   0.00000  Uiso   1.00
C45    C     0.56685   0.47096   0.49985   0.00000  Uiso   1.00
N13    N     0.58253   0.50023   0.49986   0.00000  Uiso   1.00
C46    C     0.58322   0.44098   0.49987   0.00000  Uiso   1.00
C47    C     0.55935   0.41711   0.49988   0.00000  Uiso   1.00
C48    C     0.52936   0.43348   0.49986   0.00000  Uiso   1.00
C49    C     0.56706   0.61712   0.49994   0.00000  Uiso   1.00
C50    C     0.60082   0.62598   0.50001   0.00000  Uiso   1.00
C51    C     0.62585   0.60095   0.50002   0.00000  Uiso   1.00
C52    C     0.61698   0.56720   0.49996   0.00000  Uiso   1.00
C53    C     0.56707   0.38335   0.49992   0.00000  Uiso   1.00
C54    C     0.60082   0.37448   0.49995   0.00000  Uiso   1.00
C55    C     0.62585   0.39951   0.49995   0.00000  Uiso   1.00
C56    C     0.61698   0.43326   0.49991   0.00000  Uiso   1.00
N14    N     0.46684   0.46697   0.49981   0.00000  Uiso   1.00
C57    C     0.47083   0.43348   0.49985   0.00000  Uiso   1.00
N15    N     0.50010   0.41780   0.49986   0.00000  Uiso   1.00
C58    C     0.44085   0.41711   0.49987   0.00000  Uiso   1.00
C59    C     0.41697   0.44098   0.49986   0.00000  Uiso   1.00
C60    C     0.43334   0.47096   0.49982   0.00000  Uiso   1.00
C61    C     0.38321   0.43326   0.49990   0.00000  Uiso   1.00
C62    C     0.37435   0.39950   0.49997   0.00000  Uiso   1.00
C63    C     0.39938   0.37448   0.49998   0.00000  Uiso   1.00
C64    C     0.43313   0.38334   0.49993   0.00000  Uiso   1.00
N16    N     0.41766   0.50023   0.49981   0.00000  Uiso   1.00
H9     H     0.36449   0.54792   0.49982   0.00000  Uiso   1.00
O9     O     0.34102   0.61031   0.49989   0.00000  Uiso   1.00
O10    O     0.39001   0.65930   0.49990   0.00000  Uiso   1.00
H10    H     0.45240   0.63583   0.49988   0.00000  Uiso   1.00
H11    H     0.54779   0.63583   0.49994   0.00000  Uiso   1.00
O11    O     0.61018   0.65930   0.50007   0.00000  Uiso   1.00
O12    O     0.65917   0.61031   0.50008   0.00000  Uiso   1.00
H12    H     0.63569   0.54792   0.49997   0.00000  Uiso   1.00
H13    H     0.54779   0.36463   0.49993   0.00000  Uiso   1.00
O13    O     0.61018   0.34116   0.49999   0.00000  Uiso   1.00
O14    O     0.65917   0.39015   0.49999   0.00000  Uiso   1.00
H14    H     0.63570   0.45254   0.49990   0.00000  Uiso   1.00
H15    H     0.36450   0.45253   0.49989   0.00000  Uiso   1.00
O15    O     0.34103   0.39014   0.50002   0.00000  Uiso   1.00
O16    O     0.39002   0.34116   0.50004   0.00000  Uiso   1.00
H16    H     0.45240   0.36463   0.49995   0.00000  Uiso   1.00
Ni2    Ni    0.50010   0.50023   0.49980   0.00000  Uiso   1.00
C65    C     0.23835   0.23848   0.94563   0.00000  Uiso   1.00
C66    C     0.23835   0.23848   0.05451   0.00000  Uiso   1.00
C67    C     0.21747   0.21760   0.10852   0.00000  Uiso   1.00
C68    C     0.19599   0.19613   0.05529   0.00000  Uiso   1.00
C69    C     0.19599   0.19613   0.94487   0.00000  Uiso   1.00
C70    C     0.21747   0.21760   0.89163   0.00000  Uiso   1.00
O17    O     0.25856   0.25868   0.88627   0.00000  Uiso   1.00
O18    O     0.25856   0.25867   0.11387   0.00000  Uiso   1.00
O19    O     0.21923   0.21935   0.21584   0.00000  Uiso   1.00
O20    O     0.17472   0.17485   0.10897   0.00000  Uiso   1.00
O21    O     0.17471   0.17486   0.89119   0.00000  Uiso   1.00
O22    O     0.21922   0.21936   0.78431   0.00000  Uiso   1.00
C71    C     0.76186   0.23850   0.94553   0.00000  Uiso   1.00
C72    C     0.76186   0.23850   0.05441   0.00000  Uiso   1.00
C73    C     0.78274   0.21762   0.10842   0.00000  Uiso   1.00
C74    C     0.80420   0.19614   0.05519   0.00000  Uiso   1.00
C75    C     0.80421   0.19614   0.94477   0.00000  Uiso   1.00
C76    C     0.78274   0.21761   0.89153   0.00000  Uiso   1.00
O23    O     0.74166   0.25870   0.88617   0.00000  Uiso   1.00
O24    O     0.74166   0.25871   0.11376   0.00000  Uiso   1.00
O25    O     0.78098   0.21937   0.21574   0.00000  Uiso   1.00
O26    O     0.82548   0.17486   0.10888   0.00000  Uiso   1.00
O27    O     0.82548   0.17486   0.89109   0.00000  Uiso   1.00
O28    O     0.78098   0.21937   0.78421   0.00000  Uiso   1.00
C77    C     0.76185   0.76198   0.94569   0.00000  Uiso   1.00
C78    C     0.76185   0.76198   0.05457   0.00000  Uiso   1.00
C79    C     0.78273   0.78286   0.10859   0.00000  Uiso   1.00
C80    C     0.80420   0.80433   0.05535   0.00000  Uiso   1.00
C81    C     0.80420   0.80433   0.94493   0.00000  Uiso   1.00
C82    C     0.78273   0.78286   0.89169   0.00000  Uiso   1.00
O29    O     0.74165   0.74177   0.88633   0.00000  Uiso   1.00
O30    O     0.74164   0.74178   0.11392   0.00000  Uiso   1.00
O31    O     0.78097   0.78110   0.21590   0.00000  Uiso   1.00
O32    O     0.82548   0.82561   0.10904   0.00000  Uiso   1.00
O33    O     0.82548   0.82561   0.89125   0.00000  Uiso   1.00
O34    O     0.78098   0.78110   0.78437   0.00000  Uiso   1.00
C83    C     0.23836   0.76200   0.05435   0.00000  Uiso   1.00
C84    C     0.23836   0.76200   0.94546   0.00000  Uiso   1.00
C85    C     0.21748   0.78288   0.89147   0.00000  Uiso   1.00
C86    C     0.19600   0.80435   0.94472   0.00000  Uiso   1.00
C87    C     0.19601   0.80435   0.05513   0.00000  Uiso   1.00
C88    C     0.21748   0.78288   0.10836   0.00000  Uiso   1.00
O35    O     0.25857   0.74180   0.11369   0.00000  Uiso   1.00
O36    O     0.25856   0.74180   0.88610   0.00000  Uiso   1.00
O37    O     0.21923   0.78112   0.78415   0.00000  Uiso   1.00
O38    O     0.17472   0.82562   0.89104   0.00000  Uiso   1.00
O39    O     0.17473   0.82563   0.10883   0.00000  Uiso   1.00
O40    O     0.21924   0.78112   0.21568   0.00000  Uiso   1.00
C89    C     0.73835   0.73848   0.44569   0.00000  Uiso   1.00
C90    C     0.73835   0.73848   0.55457   0.00000  Uiso   1.00
C91    C     0.71747   0.71760   0.60858   0.00000  Uiso   1.00
C92    C     0.69600   0.69612   0.55534   0.00000  Uiso   1.00
C93    C     0.69600   0.69612   0.44492   0.00000  Uiso   1.00
C94    C     0.71747   0.71760   0.39168   0.00000  Uiso   1.00
O41    O     0.75855   0.75868   0.38633   0.00000  Uiso   1.00
O42    O     0.75855   0.75868   0.61393   0.00000  Uiso   1.00
O43    O     0.71923   0.71935   0.71590   0.00000  Uiso   1.00
O44    O     0.67472   0.67485   0.60901   0.00000  Uiso   1.00
O45    O     0.67472   0.67485   0.39123   0.00000  Uiso   1.00
O46    O     0.71923   0.71935   0.28436   0.00000  Uiso   1.00
C95    C     0.26186   0.73850   0.55434   0.00000  Uiso   1.00
C96    C     0.26186   0.73849   0.44546   0.00000  Uiso   1.00
C97    C     0.28273   0.71761   0.39146   0.00000  Uiso   1.00
C98    C     0.30420   0.69613   0.44470   0.00000  Uiso   1.00
C99    C     0.30420   0.69613   0.55511   0.00000  Uiso   1.00
C100   C     0.28273   0.71761   0.60835   0.00000  Uiso   1.00
O47    O     0.24166   0.75871   0.61369   0.00000  Uiso   1.00
O48    O     0.24166   0.75870   0.38610   0.00000  Uiso   1.00
O49    O     0.28098   0.71936   0.28414   0.00000  Uiso   1.00
O50    O     0.32547   0.67485   0.39101   0.00000  Uiso   1.00
O51    O     0.32547   0.67485   0.60880   0.00000  Uiso   1.00
O52    O     0.28098   0.71937   0.71567   0.00000  Uiso   1.00
C101   C     0.26186   0.26197   0.44563   0.00000  Uiso   1.00
C102   C     0.26186   0.26197   0.55451   0.00000  Uiso   1.00
C103   C     0.28273   0.28285   0.60852   0.00000  Uiso   1.00
C104   C     0.30421   0.30433   0.55528   0.00000  Uiso   1.00
C105   C     0.30421   0.30432   0.44487   0.00000  Uiso   1.00
C106   C     0.28273   0.28285   0.39163   0.00000  Uiso   1.00
O53    O     0.24165   0.24177   0.38627   0.00000  Uiso   1.00
O54    O     0.24165   0.24177   0.61386   0.00000  Uiso   1.00
O55    O     0.28098   0.28110   0.71584   0.00000  Uiso   1.00
O56    O     0.32548   0.32561   0.60896   0.00000  Uiso   1.00
O57    O     0.32548   0.32560   0.39118   0.00000  Uiso   1.00
O58    O     0.28098   0.28110   0.28431   0.00000  Uiso   1.00
C107   C     0.73836   0.26200   0.44553   0.00000  Uiso   1.00
C108   C     0.73836   0.26200   0.55442   0.00000  Uiso   1.00
C109   C     0.71748   0.28287   0.60843   0.00000  Uiso   1.00
C110   C     0.69600   0.30434   0.55520   0.00000  Uiso   1.00
C111   C     0.69600   0.30434   0.44478   0.00000  Uiso   1.00
C112   C     0.71748   0.28288   0.39154   0.00000  Uiso   1.00
O59    O     0.75857   0.24180   0.38617   0.00000  Uiso   1.00
O60    O     0.75857   0.24179   0.61376   0.00000  Uiso   1.00
O61    O     0.71923   0.28111   0.71575   0.00000  Uiso   1.00
O62    O     0.67472   0.32562   0.60889   0.00000  Uiso   1.00
O63    O     0.67472   0.32562   0.39110   0.00000  Uiso   1.00
O64    O     0.71923   0.28113   0.28422   0.00000  Uiso   1.00
Cu1    Cu    0.25011   0.25022   0.25007   0.00000  Uiso   1.00
Cu2    Cu    0.75011   0.25025   0.24997   0.00000  Uiso   1.00
Cu3    Cu    0.75010   0.75022   0.25013   0.00000  Uiso   1.00
Cu4    Cu    0.25011   0.75024   0.24990   0.00000  Uiso   1.00
Cu5    Cu    0.25010   0.75025   0.74990   0.00000  Uiso   1.00
Cu6    Cu    0.25010   0.25022   0.75007   0.00000  Uiso   1.00
Cu7    Cu    0.75011   0.25024   0.74997   0.00000  Uiso   1.00
Cu8    Cu    0.75011   0.75022   0.75013   0.00000  Uiso   1.00
Zn1    Zn    0.15468   0.15483   0.00008   0.00000  Uiso   1.00
Zn2    Zn    0.84551   0.15483   0.99999   0.00000  Uiso   1.00
Zn3    Zn    0.84551   0.84564   0.00015   0.00000  Uiso   1.00
Zn4    Zn    0.15469   0.84565   0.99995   0.00000  Uiso   1.00
Zn5    Zn    0.65469   0.65482   0.50010   0.00000  Uiso   1.00
Zn6    Zn    0.34550   0.65482   0.49990   0.00000  Uiso   1.00
Zn7    Zn    0.34551   0.34563   0.50006   0.00000  Uiso   1.00
Zn8    Zn    0.65469   0.34564   0.49999   0.00000  Uiso   1.00
loop_
_geom_bond_atom_site_label_1
_geom_bond_atom_site_label_2
_geom_bond_distance
_geom_bond_site_symmetry_2
_ccdc_geom_bond_type
C1     C2      1.406   .     A
C1     C6      1.396   .     A
C1     H1      1.083   .     S
C2     C3      1.427   .     A
C2     O1      1.395   .     S
C3     C4      1.406   .     A
C3     O2      1.395   .     S
C4     C5      1.396   .     A
C4     H2      1.083   1_554 S
C5     C6      1.361   .     A
C5     C8      1.377   .     A
C6     C7      1.377   .     A
C7     N1      1.360   .     A
C7     N8      1.338   1_565 A
N1     C8      1.360   .     A
N1     Ni1     1.895   1_665 S
C8     N2      1.338   1_654 A
N2     C8      1.338   1_456 A
N2     C9      1.338   .     A
C9     N3      1.360   1_556 A
C9     C12     1.377   .     A
N3     C9      1.360   1_554 A
N3     C10     1.360   .     A
N3     Ni1     1.895   1_565 S
C10    C11     1.377   .     A
C10    N5      1.338   1_565 A
C11    C12     1.361   1_554 A
C11    C20     1.396   .     A
C12    C11     1.361   1_556 A
C12    C17     1.396   .     A
N4     C13     1.360   .     A
N4     C16     1.360   .     A
N4     Ni1     1.895   .     S
C13    N5      1.338   .     A
C13    C14     1.377   .     A
N5     C10     1.338   1_545 A
C14    C15     1.361   .     A
C14    C24     1.396   .     A
C15    C16     1.377   .     A
C15    C21     1.396   1_554 A
C16    N7      1.338   1_554 A
C17    C18     1.406   .     A
C17    H3      1.083   .     S
C18    C19     1.427   .     A
C18    O3      1.395   .     S
C19    C20     1.406   1_556 A
C19    O4      1.395   .     S
C20    C19     1.406   1_554 A
C20    H4      1.083   .     S
C21    C15     1.396   1_556 A
C21    C22     1.406   1_556 A
C21    H5      1.083   .     S
C22    C21     1.406   1_554 A
C22    C23     1.427   .     A
C22    O5      1.395   .     S
C23    C24     1.406   .     A
C23    O6      1.395   .     S
C24    H6      1.083   .     S
N6     C25     1.360   1_554 A
N6     C28     1.360   .     A
N6     Ni1     1.895   1_655 S
C25    N6      1.360   1_556 A
C25    N7      1.338   1_655 A
C25    C26     1.377   .     A
N7     C16     1.338   1_556 A
N7     C25     1.338   1_455 A
C26    C27     1.361   1_556 A
C26    C32     1.396   .     A
C27    C26     1.361   1_554 A
C27    C28     1.377   .     A
C27    C29     1.396   .     A
C28    N8      1.338   .     A
C29    C30     1.406   1_554 A
C29    H7      1.083   .     S
C30    C29     1.406   1_556 A
C30    C31     1.427   .     A
C30    O7      1.395   .     S
C31    C32     1.406   .     A
C31    O8      1.395   .     S
C32    H8      1.083   .     S
N8     C7      1.338   1_545 A
O1     Zn3     1.803   .     S
O2     Zn3     1.803   .     S
H2     C4      1.083   1_556 S
O3     Zn4     1.803   .     S
O4     Zn4     1.803   .     S
O5     Zn1     1.803   .     S
O6     Zn1     1.803   .     S
O7     Zn2     1.803   .     S
O8     Zn2     1.803   .     S
Ni1    N6      1.895   1_455 S
Ni1    N3      1.895   1_545 S
Ni1    N1      1.895   1_445 S
C33    C34     1.406   .     A
C33    C38     1.396   .     A
C33    H9      1.083   .     S
C34    C35     1.427   .     A
C34    O9      1.395   .     S
C35    C36     1.406   .     A
C35    O10     1.395   .     S
C36    C37     1.396   .     A
C36    H10     1.083   .     S
C37    C38     1.361   .     A
C37    C40     1.377   .     A
C38    C39     1.377   .     A
C39    N9      1.360   .     A
C39    N16     1.338   .     A
N9     C40     1.360   .     A
N9     Ni2     1.895   .     S
C40    N10     1.338   .     A
N10    C41     1.338   .     A
C41    N11     1.360   .     A
C41    C44     1.377   .     A
N11    C42     1.360   .     A
N11    Ni2     1.895   .     S
C42    C43     1.377   .     A
C42    N13     1.338   .     A
C43    C44     1.361   .     A
C43    C52     1.396   .     A
C44    C49     1.396   .     A
N12    C45     1.360   .     A
N12    C48     1.360   .     A
N12    Ni2     1.895   .     S
C45    N13     1.338   .     A
C45    C46     1.377   .     A
C46    C47     1.361   .     A
C46    C56     1.396   .     A
C47    C48     1.377   .     A
C47    C53     1.396   .     A
C48    N15     1.338   .     A
C49    C50     1.406   .     A
C49    H11     1.083   .     S
C50    C51     1.427   .     A
C50    O11     1.395   .     S
C51    C52     1.406   .     A
C51    O12     1.395   .     S
C52    H12     1.083   .     S
C53    C54     1.406   .     A
C53    H13     1.083   .     S
C54    C55     1.427   .     A
C54    O13     1.395   .     S
C55    C56     1.406   .     A
C55    O14     1.395   .     S
C56    H14     1.083   .     S
N14    C57     1.360   .     A
N14    C60     1.360   .     A
N14    Ni2     1.895   .     S
C57    N15     1.338   .     A
C57    C58     1.377   .     A
C58    C59     1.361   .     A
C58    C64     1.396   .     A
C59    C60     1.377   .     A
C59    C61     1.396   .     A
C60    N16     1.338   .     A
C61    C62     1.406   .     A
C61    H15     1.083   .     S
C62    C63     1.427   .     A
C62    O15     1.395   .     S
C63    C64     1.406   .     A
C63    O16     1.395   .     S
C64    H16     1.083   .     S
O9     Zn6     1.803   .     S
O10    Zn6     1.803   .     S
O11    Zn5     1.803   .     S
O12    Zn5     1.803   .     S
O13    Zn8     1.803   .     S
O14    Zn8     1.803   .     S
O15    Zn7     1.803   .     S
O16    Zn7     1.803   .     S
C65    C66     1.398   1_556 A
C65    C70     1.377   .     A
C65    O17     1.381   .     S
C66    C65     1.398   1_554 A
C66    C67     1.377   .     A
C66    O18     1.381   .     S
C67    C68     1.402   .     A
C67    O19     1.381   .     S
C68    C69     1.417   1_554 A
C68    O20     1.395   .     S
C69    C68     1.417   1_556 A
C69    C70     1.402   .     A
C69    O21     1.395   .     S
C70    O22     1.381   .     S
O17    Cu6     1.813   .     S
O18    Cu1     1.813   .     S
O19    Cu1     1.814   .     S
O20    Zn1     1.805   .     S
O21    Zn1     1.805   1_556 S
O22    Cu6     1.814   .     S
C71    C72     1.398   1_556 A
C71    C76     1.377   .     A
C71    O23     1.381   .     S
C72    C71     1.398   1_554 A
C72    C73     1.377   .     A
C72    O24     1.381   .     S
C73    C74     1.402   .     A
C73    O25     1.381   .     S
C74    C75     1.417   1_554 A
C74    O26     1.395   .     S
C75    C74     1.417   1_556 A
C75    C76     1.402   .     A
C75    O27     1.395   .     S
C76    O28     1.381   .     S
O23    Cu7     1.813   .     S
O24    Cu2     1.813   .     S
O25    Cu2     1.814   .     S
O26    Zn2     1.804   1_554 S
O27    Zn2     1.805   .     S
O28    Cu7     1.814   .     S
C77    C78     1.398   1_556 A
C77    C82     1.377   .     A
C77    O29     1.381   .     S
C78    C77     1.398   1_554 A
C78    C79     1.377   .     A
C78    O30     1.381   .     S
C79    C80     1.402   .     A
C79    O31     1.381   .     S
C80    C81     1.417   1_554 A
C80    O32     1.395   .     S
C81    C80     1.417   1_556 A
C81    C82     1.402   .     A
C81    O33     1.395   .     S
C82    O34     1.381   .     S
O29    Cu8     1.813   .     S
O30    Cu3     1.813   .     S
O31    Cu3     1.814   .     S
O32    Zn3     1.805   .     S
O33    Zn3     1.805   1_556 S
O34    Cu8     1.814   .     S
C83    C84     1.398   1_554 A
C83    C88     1.377   .     A
C83    O35     1.381   .     S
C84    C83     1.398   1_556 A
C84    C85     1.377   .     A
C84    O36     1.381   .     S
C85    C86     1.402   .     A
C85    O37     1.381   .     S
C86    C87     1.417   1_556 A
C86    O38     1.395   .     S
C87    C86     1.417   1_554 A
C87    C88     1.402   .     A
C87    O39     1.395   .     S
C88    O40     1.381   .     S
O35    Cu4     1.813   .     S
O36    Cu5     1.813   .     S
O37    Cu5     1.814   .     S
O38    Zn4     1.805   .     S
O39    Zn4     1.805   1_554 S
O40    Cu4     1.814   .     S
C89    C90     1.398   .     A
C89    C94     1.377   .     A
C89    O41     1.381   .     S
C90    C91     1.377   .     A
C90    O42     1.381   .     S
C91    C92     1.402   .     A
C91    O43     1.381   .     S
C92    C93     1.417   .     A
C92    O44     1.395   .     S
C93    C94     1.402   .     A
C93    O45     1.395   .     S
C94    O46     1.381   .     S
O41    Cu3     1.813   .     S
O42    Cu8     1.813   .     S
O43    Cu8     1.814   .     S
O44    Zn5     1.805   .     S
O45    Zn5     1.804   .     S
O46    Cu3     1.814   .     S
C95    C96     1.398   .     A
C95    C100    1.377   .     A
C95    O47     1.381   .     S
C96    C97     1.377   .     A
C96    O48     1.381   .     S
C97    C98     1.402   .     A
C97    O49     1.381   .     S
C98    C99     1.417   .     A
C98    O50     1.395   .     S
C99    C100    1.402   .     A
C99    O51     1.395   .     S
C100   O52     1.381   .     S
O47    Cu5     1.813   .     S
O48    Cu4     1.813   .     S
O49    Cu4     1.814   .     S
O50    Zn6     1.805   .     S
O51    Zn6     1.805   .     S
O52    Cu5     1.814   .     S
C101   C102    1.398   .     A
C101   C106    1.377   .     A
C101   O53     1.381   .     S
C102   C103    1.377   .     A
C102   O54     1.381   .     S
C103   C104    1.402   .     A
C103   O55     1.381   .     S
C104   C105    1.417   .     A
C104   O56     1.395   .     S
C105   C106    1.402   .     A
C105   O57     1.395   .     S
C106   O58     1.381   .     S
O53    Cu1     1.813   .     S
O54    Cu6     1.813   .     S
O55    Cu6     1.814   .     S
O56    Zn7     1.805   .     S
O57    Zn7     1.804   .     S
O58    Cu1     1.814   .     S
C107   C108    1.398   .     A
C107   C112    1.377   .     A
C107   O59     1.381   .     S
C108   C109    1.377   .     A
C108   O60     1.381   .     S
C109   C110    1.402   .     A
C109   O61     1.381   .     S
C110   C111    1.417   .     A
C110   O62     1.395   .     S
C111   C112    1.402   .     A
C111   O63     1.395   .     S
C112   O64     1.381   .     S
O59    Cu2     1.813   .     S
O60    Cu7     1.813   .     S
O61    Cu7     1.814   .     S
O62    Zn8     1.805   .     S
O63    Zn8     1.804   .     S
O64    Cu2     1.814   .     S
Zn1    O21     1.805   1_554 S
Zn2    O26     1.804   1_556 S
Zn3    O33     1.805   1_554 S
Zn4    O39     1.805   1_556 S
