data_hof-B_O-PcMN_O-Zntet
_audit_creation_date              2021-11-06
_audit_creation_method            'Materials Studio'
_symmetry_space_group_name_H-M    'P1'
_symmetry_Int_Tables_number       1
_symmetry_cell_setting            triclinic
loop_
_symmetry_equiv_pos_as_xyz
  x,y,z
_cell_length_a                    47.1873
_cell_length_b                    47.1731
_cell_length_c                    12.8349
_cell_angle_alpha                 90.0000
_cell_angle_beta                  90.0000
_cell_angle_gamma                 90.0000
loop_
_atom_site_label
_atom_site_type_symbol
_atom_site_fract_x
_atom_site_fract_y
_atom_site_fract_z
_atom_site_U_iso_or_equiv
_atom_site_adp_type
_atom_site_occupancy
C1     C     0.10042   0.94324   0.00007   0.00000  Uiso   1.00
C2     C     0.10817   0.91434   0.00007   0.00000  Uiso   1.00
C3     C     0.08672   0.89288   0.00007   0.00000  Uiso   1.00
C4     C     0.05783   0.90063   0.00006   0.00000  Uiso   1.00
C5     C     0.05126   0.92944   0.00006   0.00000  Uiso   1.00
C6     C     0.07162   0.94981   0.00007   0.00000  Uiso   1.00
C7     C     0.05765   0.97543   0.00006   0.00000  Uiso   1.00
N1     N     0.02904   0.97203   0.00005   0.00000  Uiso   1.00
C8     C     0.02565   0.94341   0.00005   0.00000  Uiso   1.00
N2     N     0.00065   0.93002   0.00005   0.00000  Uiso   1.00
C9     C     0.97565   0.94341   0.00005   0.00000  Uiso   1.00
N3     N     0.97225   0.97203   0.00005   0.00000  Uiso   1.00
C10    C     0.94365   0.97543   0.00005   0.00000  Uiso   1.00
C11    C     0.92968   0.94980   0.00005   0.00000  Uiso   1.00
C12    C     0.95004   0.92944   0.00005   0.00000  Uiso   1.00
N4     N     0.97225   0.02884   0.00005   0.00000  Uiso   1.00
C13    C     0.94365   0.02544   0.00006   0.00000  Uiso   1.00
N5     N     0.93025   0.00043   0.00005   0.00000  Uiso   1.00
C14    C     0.92968   0.05106   0.00006   0.00000  Uiso   1.00
C15    C     0.95003   0.07142   0.00006   0.00000  Uiso   1.00
C16    C     0.97565   0.05745   0.00005   0.00000  Uiso   1.00
C17    C     0.94348   0.90062   0.00005   0.00000  Uiso   1.00
C18    C     0.91459   0.89287   0.00005   0.00000  Uiso   1.00
C19    C     0.89313   0.91433   0.00005   0.00000  Uiso   1.00
C20    C     0.90088   0.94323   0.00005   0.00000  Uiso   1.00
C21    C     0.94346   0.10024   0.00006   0.00000  Uiso   1.00
C22    C     0.91457   0.10799   0.00007   0.00000  Uiso   1.00
C23    C     0.89312   0.08652   0.00007   0.00000  Uiso   1.00
C24    C     0.90087   0.05762   0.00007   0.00000  Uiso   1.00
N6     N     0.02904   0.02884   0.00006   0.00000  Uiso   1.00
C25    C     0.02565   0.05745   0.00005   0.00000  Uiso   1.00
N7     N     0.00065   0.07085   0.00005   0.00000  Uiso   1.00
C26    C     0.05127   0.07142   0.00006   0.00000  Uiso   1.00
C27    C     0.07162   0.05106   0.00006   0.00000  Uiso   1.00
C28    C     0.05765   0.02544   0.00006   0.00000  Uiso   1.00
C29    C     0.10043   0.05762   0.00006   0.00000  Uiso   1.00
C30    C     0.10818   0.08652   0.00007   0.00000  Uiso   1.00
C31    C     0.08673   0.10798   0.00006   0.00000  Uiso   1.00
C32    C     0.05784   0.10024   0.00006   0.00000  Uiso   1.00
N8     N     0.07104   0.00043   0.00006   0.00000  Uiso   1.00
H1     H     0.11621   0.95992   0.00008   0.00000  Uiso   1.00
H2     H     0.04116   0.88483   0.00006   0.00000  Uiso   1.00
H3     H     0.96015   0.88483   0.00004   0.00000  Uiso   1.00
H4     H     0.88508   0.95991   0.00005   0.00000  Uiso   1.00
H5     H     0.96013   0.11604   0.00006   0.00000  Uiso   1.00
H6     H     0.88508   0.04094   0.00007   0.00000  Uiso   1.00
H7     H     0.11621   0.04094   0.00006   0.00000  Uiso   1.00
H8     H     0.04117   0.11604   0.00006   0.00000  Uiso   1.00
C33    C     0.13685   0.09438   0.00007   0.00000  Uiso   1.00
C34    C     0.14440   0.12302   0.00006   0.00000  Uiso   1.00
C35    C     0.12325   0.14419   0.00006   0.00000  Uiso   1.00
C36    C     0.09462   0.13666   0.00006   0.00000  Uiso   1.00
C37    C     0.13684   0.90647   0.00007   0.00000  Uiso   1.00
C38    C     0.14439   0.87783   0.00007   0.00000  Uiso   1.00
C39    C     0.12323   0.85667   0.00007   0.00000  Uiso   1.00
C40    C     0.09460   0.86420   0.00007   0.00000  Uiso   1.00
C41    C     0.90672   0.86419   0.00005   0.00000  Uiso   1.00
C42    C     0.87809   0.85665   0.00006   0.00000  Uiso   1.00
C43    C     0.85693   0.87781   0.00006   0.00000  Uiso   1.00
C44    C     0.86446   0.90645   0.00005   0.00000  Uiso   1.00
C45    C     0.90669   0.13666   0.00007   0.00000  Uiso   1.00
C46    C     0.87806   0.14420   0.00007   0.00000  Uiso   1.00
C47    C     0.85691   0.12303   0.00007   0.00000  Uiso   1.00
C48    C     0.86445   0.09439   0.00007   0.00000  Uiso   1.00
H9     H     0.15334   0.07838   0.00007   0.00000  Uiso   1.00
O1     O     0.17289   0.13095   0.00007   0.00000  Uiso   1.00
O2     O     0.13120   0.17268   0.00006   0.00000  Uiso   1.00
H10    H     0.07863   0.15316   0.00006   0.00000  Uiso   1.00
H11    H     0.15333   0.92247   0.00008   0.00000  Uiso   1.00
O3     O     0.17287   0.86990   0.00007   0.00000  Uiso   1.00
O4     O     0.13117   0.82817   0.00006   0.00000  Uiso   1.00
H12    H     0.07861   0.84771   0.00006   0.00000  Uiso   1.00
H13    H     0.92271   0.84770   0.00005   0.00000  Uiso   1.00
O5     O     0.87015   0.82815   0.00006   0.00000  Uiso   1.00
O6     O     0.82844   0.86987   0.00006   0.00000  Uiso   1.00
H14    H     0.84797   0.92244   0.00005   0.00000  Uiso   1.00
H15    H     0.92268   0.15316   0.00006   0.00000  Uiso   1.00
O7     O     0.87012   0.17269   0.00006   0.00000  Uiso   1.00
O8     O     0.82842   0.13097   0.00007   0.00000  Uiso   1.00
H16    H     0.84796   0.07840   0.00008   0.00000  Uiso   1.00
Ni1    Ni    0.00065   0.00043   0.00003   0.00000  Uiso   1.00
C49    C     0.40088   0.55765   0.50006   0.00000  Uiso   1.00
C50    C     0.39313   0.58655   0.50006   0.00000  Uiso   1.00
C51    C     0.41458   0.60802   0.50005   0.00000  Uiso   1.00
C52    C     0.44347   0.60027   0.50005   0.00000  Uiso   1.00
C53    C     0.45004   0.57145   0.50005   0.00000  Uiso   1.00
C54    C     0.42969   0.55109   0.50006   0.00000  Uiso   1.00
C55    C     0.44365   0.52547   0.50005   0.00000  Uiso   1.00
N9     N     0.47226   0.52886   0.50005   0.00000  Uiso   1.00
C56    C     0.47566   0.55748   0.50005   0.00000  Uiso   1.00
N10    N     0.50065   0.57087   0.50004   0.00000  Uiso   1.00
C57    C     0.52565   0.55747   0.50004   0.00000  Uiso   1.00
N11    N     0.52905   0.52886   0.50004   0.00000  Uiso   1.00
C58    C     0.55765   0.52546   0.50005   0.00000  Uiso   1.00
C59    C     0.57162   0.55108   0.50004   0.00000  Uiso   1.00
C60    C     0.55126   0.57144   0.50004   0.00000  Uiso   1.00
N12    N     0.52904   0.47205   0.50005   0.00000  Uiso   1.00
C61    C     0.55765   0.47545   0.50005   0.00000  Uiso   1.00
N13    N     0.57105   0.50045   0.50005   0.00000  Uiso   1.00
C62    C     0.57162   0.44982   0.50005   0.00000  Uiso   1.00
C63    C     0.55126   0.42946   0.50005   0.00000  Uiso   1.00
C64    C     0.52564   0.44343   0.50005   0.00000  Uiso   1.00
C65    C     0.55783   0.60026   0.50004   0.00000  Uiso   1.00
C66    C     0.58672   0.60801   0.50004   0.00000  Uiso   1.00
C67    C     0.60817   0.58655   0.50004   0.00000  Uiso   1.00
C68    C     0.60043   0.55765   0.50004   0.00000  Uiso   1.00
C69    C     0.55783   0.40064   0.50005   0.00000  Uiso   1.00
C70    C     0.58672   0.39290   0.50005   0.00000  Uiso   1.00
C71    C     0.60817   0.41436   0.50006   0.00000  Uiso   1.00
C72    C     0.60042   0.44326   0.50006   0.00000  Uiso   1.00
N14    N     0.47225   0.47205   0.50005   0.00000  Uiso   1.00
C73    C     0.47565   0.44344   0.50005   0.00000  Uiso   1.00
N15    N     0.50064   0.43004   0.50005   0.00000  Uiso   1.00
C74    C     0.45003   0.42947   0.50005   0.00000  Uiso   1.00
C75    C     0.42968   0.44984   0.50006   0.00000  Uiso   1.00
C76    C     0.44365   0.47546   0.50006   0.00000  Uiso   1.00
C77    C     0.40087   0.44328   0.50006   0.00000  Uiso   1.00
C78    C     0.39311   0.41439   0.50005   0.00000  Uiso   1.00
C79    C     0.41455   0.39292   0.50005   0.00000  Uiso   1.00
C80    C     0.44345   0.40065   0.50005   0.00000  Uiso   1.00
N16    N     0.43026   0.50046   0.50006   0.00000  Uiso   1.00
H17    H     0.38509   0.54098   0.50007   0.00000  Uiso   1.00
H18    H     0.46015   0.61606   0.50005   0.00000  Uiso   1.00
H19    H     0.54115   0.61605   0.50003   0.00000  Uiso   1.00
H20    H     0.61622   0.54098   0.50004   0.00000  Uiso   1.00
H21    H     0.54116   0.38485   0.50005   0.00000  Uiso   1.00
H22    H     0.61621   0.45993   0.50006   0.00000  Uiso   1.00
H23    H     0.38508   0.45997   0.50005   0.00000  Uiso   1.00
H24    H     0.46011   0.38485   0.50005   0.00000  Uiso   1.00
C81    C     0.36443   0.40652   0.50006   0.00000  Uiso   1.00
C82    C     0.35688   0.37789   0.50006   0.00000  Uiso   1.00
C83    C     0.37803   0.35671   0.50005   0.00000  Uiso   1.00
C84    C     0.40667   0.36424   0.50005   0.00000  Uiso   1.00
C85    C     0.36446   0.59442   0.50006   0.00000  Uiso   1.00
C86    C     0.35692   0.62306   0.50006   0.00000  Uiso   1.00
C87    C     0.37808   0.64423   0.50005   0.00000  Uiso   1.00
C88    C     0.40671   0.63669   0.50005   0.00000  Uiso   1.00
C89    C     0.59459   0.63669   0.50004   0.00000  Uiso   1.00
C90    C     0.62321   0.64423   0.50005   0.00000  Uiso   1.00
C91    C     0.64438   0.62307   0.50005   0.00000  Uiso   1.00
C92    C     0.63684   0.59443   0.50004   0.00000  Uiso   1.00
C93    C     0.59459   0.36422   0.50005   0.00000  Uiso   1.00
C94    C     0.62322   0.35668   0.50005   0.00000  Uiso   1.00
C95    C     0.64438   0.37785   0.50006   0.00000  Uiso   1.00
C96    C     0.63684   0.40649   0.50006   0.00000  Uiso   1.00
H25    H     0.34795   0.42253   0.50006   0.00000  Uiso   1.00
O9     O     0.32839   0.36996   0.50006   0.00000  Uiso   1.00
O10    O     0.37008   0.32822   0.50006   0.00000  Uiso   1.00
H26    H     0.42265   0.34774   0.50005   0.00000  Uiso   1.00
H27    H     0.34797   0.57843   0.50006   0.00000  Uiso   1.00
O11    O     0.32843   0.63100   0.50006   0.00000  Uiso   1.00
O12    O     0.37013   0.67272   0.50005   0.00000  Uiso   1.00
H28    H     0.42269   0.65319   0.50005   0.00000  Uiso   1.00
H29    H     0.57860   0.65318   0.50004   0.00000  Uiso   1.00
O13    O     0.63115   0.67273   0.50005   0.00000  Uiso   1.00
O14    O     0.67286   0.63101   0.50005   0.00000  Uiso   1.00
H30    H     0.65333   0.57844   0.50004   0.00000  Uiso   1.00
H31    H     0.57861   0.34772   0.50005   0.00000  Uiso   1.00
O15    O     0.63117   0.32819   0.50005   0.00000  Uiso   1.00
O16    O     0.67287   0.36991   0.50006   0.00000  Uiso   1.00
H32    H     0.65333   0.42248   0.50006   0.00000  Uiso   1.00
Ni2    Ni    0.50065   0.50046   0.50003   0.00000  Uiso   1.00
C97    C     0.24062   0.24040   0.94560   0.00000  Uiso   1.00
C98    C     0.24062   0.24040   0.05448   0.00000  Uiso   1.00
C99    C     0.22279   0.22256   0.10849   0.00000  Uiso   1.00
C100   C     0.20446   0.20421   0.05526   0.00000  Uiso   1.00
C101   C     0.20445   0.20421   0.94484   0.00000  Uiso   1.00
C102   C     0.22279   0.22256   0.89159   0.00000  Uiso   1.00
O17    O     0.25786   0.25767   0.88624   0.00000  Uiso   1.00
O18    O     0.25786   0.25767   0.11383   0.00000  Uiso   1.00
O19    O     0.22429   0.22406   0.21581   0.00000  Uiso   1.00
O20    O     0.18628   0.18603   0.10896   0.00000  Uiso   1.00
O21    O     0.18628   0.18603   0.89115   0.00000  Uiso   1.00
O22    O     0.22429   0.22406   0.78427   0.00000  Uiso   1.00
C103   C     0.76070   0.24042   0.94560   0.00000  Uiso   1.00
C104   C     0.76070   0.24042   0.05448   0.00000  Uiso   1.00
C105   C     0.77853   0.22258   0.10849   0.00000  Uiso   1.00
C106   C     0.79687   0.20424   0.05526   0.00000  Uiso   1.00
C107   C     0.79687   0.20424   0.94484   0.00000  Uiso   1.00
C108   C     0.77853   0.22258   0.89159   0.00000  Uiso   1.00
O23    O     0.74345   0.25768   0.88624   0.00000  Uiso   1.00
O24    O     0.74344   0.25768   0.11383   0.00000  Uiso   1.00
O25    O     0.77703   0.22408   0.21581   0.00000  Uiso   1.00
O26    O     0.81504   0.18606   0.10896   0.00000  Uiso   1.00
O27    O     0.81504   0.18606   0.89115   0.00000  Uiso   1.00
O28    O     0.77703   0.22408   0.78427   0.00000  Uiso   1.00
C109   C     0.76071   0.76046   0.94561   0.00000  Uiso   1.00
C110   C     0.76071   0.76046   0.05449   0.00000  Uiso   1.00
C111   C     0.77855   0.77828   0.10850   0.00000  Uiso   1.00
C112   C     0.79690   0.79661   0.05527   0.00000  Uiso   1.00
C113   C     0.79690   0.79661   0.94484   0.00000  Uiso   1.00
C114   C     0.77855   0.77828   0.89160   0.00000  Uiso   1.00
O29    O     0.74344   0.74322   0.88625   0.00000  Uiso   1.00
O30    O     0.74343   0.74322   0.11384   0.00000  Uiso   1.00
O31    O     0.77704   0.77679   0.21582   0.00000  Uiso   1.00
O32    O     0.81508   0.81478   0.10896   0.00000  Uiso   1.00
O33    O     0.81508   0.81478   0.89115   0.00000  Uiso   1.00
O34    O     0.77704   0.77680   0.78429   0.00000  Uiso   1.00
C115   C     0.24062   0.76049   0.05447   0.00000  Uiso   1.00
C116   C     0.24062   0.76049   0.94559   0.00000  Uiso   1.00
C117   C     0.22278   0.77832   0.89159   0.00000  Uiso   1.00
C118   C     0.20443   0.79665   0.94483   0.00000  Uiso   1.00
C119   C     0.20443   0.79665   0.05526   0.00000  Uiso   1.00
C120   C     0.22278   0.77831   0.10849   0.00000  Uiso   1.00
O35    O     0.25789   0.74324   0.11382   0.00000  Uiso   1.00
O36    O     0.25788   0.74324   0.88623   0.00000  Uiso   1.00
O37    O     0.22428   0.77682   0.78427   0.00000  Uiso   1.00
O38    O     0.18625   0.81482   0.89114   0.00000  Uiso   1.00
O39    O     0.18625   0.81481   0.10896   0.00000  Uiso   1.00
O40    O     0.22428   0.77681   0.21581   0.00000  Uiso   1.00
C121   C     0.74058   0.74044   0.44561   0.00000  Uiso   1.00
C122   C     0.74058   0.74044   0.55449   0.00000  Uiso   1.00
C123   C     0.72274   0.72261   0.60850   0.00000  Uiso   1.00
C124   C     0.70439   0.70428   0.55527   0.00000  Uiso   1.00
C125   C     0.70439   0.70428   0.44484   0.00000  Uiso   1.00
C126   C     0.72274   0.72261   0.39160   0.00000  Uiso   1.00
O41    O     0.75785   0.75768   0.38625   0.00000  Uiso   1.00
O42    O     0.75786   0.75768   0.61384   0.00000  Uiso   1.00
O43    O     0.72425   0.72411   0.71582   0.00000  Uiso   1.00
O44    O     0.68622   0.68610   0.60896   0.00000  Uiso   1.00
O45    O     0.68622   0.68610   0.39115   0.00000  Uiso   1.00
O46    O     0.72424   0.72410   0.28429   0.00000  Uiso   1.00
C127   C     0.26070   0.74042   0.55447   0.00000  Uiso   1.00
C128   C     0.26070   0.74042   0.44559   0.00000  Uiso   1.00
C129   C     0.27854   0.72259   0.39159   0.00000  Uiso   1.00
C130   C     0.29688   0.70425   0.44483   0.00000  Uiso   1.00
C131   C     0.29688   0.70425   0.55526   0.00000  Uiso   1.00
C132   C     0.27854   0.72259   0.60849   0.00000  Uiso   1.00
O47    O     0.24344   0.75768   0.61382   0.00000  Uiso   1.00
O48    O     0.24344   0.75768   0.38623   0.00000  Uiso   1.00
O49    O     0.27704   0.72408   0.28427   0.00000  Uiso   1.00
O50    O     0.31506   0.68608   0.39114   0.00000  Uiso   1.00
O51    O     0.31506   0.68608   0.60896   0.00000  Uiso   1.00
O52    O     0.27704   0.72409   0.71581   0.00000  Uiso   1.00
C133   C     0.26067   0.26050   0.44560   0.00000  Uiso   1.00
C134   C     0.26067   0.26050   0.55448   0.00000  Uiso   1.00
C135   C     0.27849   0.27835   0.60849   0.00000  Uiso   1.00
C136   C     0.29683   0.29670   0.55526   0.00000  Uiso   1.00
C137   C     0.29683   0.29670   0.44484   0.00000  Uiso   1.00
C138   C     0.27849   0.27835   0.39159   0.00000  Uiso   1.00
O53    O     0.24342   0.24323   0.38624   0.00000  Uiso   1.00
O54    O     0.24342   0.24323   0.61383   0.00000  Uiso   1.00
O55    O     0.27700   0.27684   0.71581   0.00000  Uiso   1.00
O56    O     0.31500   0.31488   0.60896   0.00000  Uiso   1.00
O57    O     0.31500   0.31488   0.39115   0.00000  Uiso   1.00
O58    O     0.27700   0.27684   0.28427   0.00000  Uiso   1.00
C139   C     0.74061   0.26048   0.44560   0.00000  Uiso   1.00
C140   C     0.74061   0.26048   0.55448   0.00000  Uiso   1.00
C141   C     0.72277   0.27831   0.60849   0.00000  Uiso   1.00
C142   C     0.70443   0.29665   0.55526   0.00000  Uiso   1.00
C143   C     0.70442   0.29665   0.44484   0.00000  Uiso   1.00
C144   C     0.72277   0.27831   0.39159   0.00000  Uiso   1.00
O59    O     0.75787   0.24323   0.38623   0.00000  Uiso   1.00
O60    O     0.75787   0.24323   0.61383   0.00000  Uiso   1.00
O61    O     0.72427   0.27681   0.71581   0.00000  Uiso   1.00
O62    O     0.68625   0.31482   0.60896   0.00000  Uiso   1.00
O63    O     0.68625   0.31482   0.39115   0.00000  Uiso   1.00
O64    O     0.72427   0.27682   0.28427   0.00000  Uiso   1.00
Cu1    Cu    0.25065   0.25045   0.25004   0.00000  Uiso   1.00
Cu2    Cu    0.75065   0.25045   0.25003   0.00000  Uiso   1.00
Cu3    Cu    0.75064   0.75045   0.25004   0.00000  Uiso   1.00
Cu4    Cu    0.25066   0.75045   0.25002   0.00000  Uiso   1.00
Cu5    Cu    0.25066   0.75046   0.75003   0.00000  Uiso   1.00
Cu6    Cu    0.25064   0.25045   0.75003   0.00000  Uiso   1.00
Cu7    Cu    0.75065   0.25045   0.75004   0.00000  Uiso   1.00
Cu8    Cu    0.75064   0.75046   0.75004   0.00000  Uiso   1.00
Zn1    Zn    0.16918   0.16893   0.00006   0.00000  Uiso   1.00
Zn2    Zn    0.83214   0.16896   0.00006   0.00000  Uiso   1.00
Zn3    Zn    0.83218   0.83189   0.00006   0.00000  Uiso   1.00
Zn4    Zn    0.16915   0.83191   0.00006   0.00000  Uiso   1.00
Zn5    Zn    0.66912   0.66900   0.50005   0.00000  Uiso   1.00
Zn6    Zn    0.33216   0.66898   0.50005   0.00000  Uiso   1.00
Zn7    Zn    0.33210   0.33197   0.50006   0.00000  Uiso   1.00
Zn8    Zn    0.66914   0.33192   0.50006   0.00000  Uiso   1.00
loop_
_geom_bond_atom_site_label_1
_geom_bond_atom_site_label_2
_geom_bond_distance
_geom_bond_site_symmetry_2
_ccdc_geom_bond_type
C1     C2      1.411   .     A
C1     C6      1.394   .     A
C1     H1      1.084   .     S
C2     C3      1.432   .     A
C2     C37     1.403   .     A
C3     C4      1.412   .     A
C3     C40     1.403   .     A
C4     C5      1.394   .     A
C4     H2      1.084   .     S
C5     C6      1.358   .     A
C5     C8      1.377   .     A
C6     C7      1.377   .     A
C7     N1      1.359   .     A
C7     N8      1.338   1_565 A
N1     C8      1.359   .     A
N1     Ni1     1.895   1_565 S
C8     N2      1.338   .     A
N2     C9      1.338   1_455 A
C9     N2      1.338   1_655 A
C9     N3      1.359   .     A
C9     C12     1.377   .     A
N3     C10     1.359   .     A
N3     Ni1     1.895   1_665 S
C10    C11     1.377   .     A
C10    N5      1.338   1_565 A
C11    C12     1.358   .     A
C11    C20     1.394   .     A
C12    C17     1.394   .     A
N4     C13     1.359   .     A
N4     C16     1.359   .     A
N4     Ni1     1.895   1_655 S
C13    N5      1.338   .     A
C13    C14     1.377   .     A
N5     C10     1.338   1_545 A
C14    C15     1.358   .     A
C14    C24     1.394   .     A
C15    C16     1.377   .     A
C15    C21     1.394   .     A
C16    N7      1.338   1_655 A
C17    C18     1.411   .     A
C17    H3      1.084   .     S
C18    C19     1.432   .     A
C18    C41     1.403   .     A
C19    C20     1.412   .     A
C19    C44     1.403   .     A
C20    H4      1.084   .     S
C21    C22     1.412   .     A
C21    H5      1.084   .     S
C22    C23     1.432   .     A
C22    C45     1.403   .     A
C23    C24     1.411   .     A
C23    C48     1.403   .     A
C24    H6      1.084   .     S
N6     C25     1.359   .     A
N6     C28     1.359   .     A
N6     Ni1     1.895   .     S
C25    N7      1.338   .     A
C25    C26     1.377   .     A
N7     C16     1.338   1_455 A
C26    C27     1.358   .     A
C26    C32     1.394   .     A
C27    C28     1.377   .     A
C27    C29     1.394   .     A
C28    N8      1.338   .     A
C29    C30     1.411   .     A
C29    H7      1.084   .     S
C30    C31     1.432   .     A
C30    C33     1.403   .     A
C31    C32     1.412   .     A
C31    C36     1.403   .     A
C32    H8      1.084   .     S
N8     C7      1.338   1_545 A
C33    C34     1.397   .     A
C33    H9      1.084   .     S
C34    C35     1.412   .     A
C34    O1      1.395   .     S
C35    C36     1.397   .     A
C35    O2      1.395   .     S
C36    H10     1.084   .     S
C37    C38     1.397   .     A
C37    H11     1.084   .     S
C38    C39     1.412   .     A
C38    O3      1.395   .     S
C39    C40     1.397   .     A
C39    O4      1.395   .     S
C40    H12     1.084   .     S
C41    C42     1.397   .     A
C41    H13     1.084   .     S
C42    C43     1.412   .     A
C42    O5      1.395   .     S
C43    C44     1.397   .     A
C43    O6      1.395   .     S
C44    H14     1.084   .     S
C45    C46     1.397   .     A
C45    H15     1.084   .     S
C46    C47     1.412   .     A
C46    O7      1.395   .     S
C47    C48     1.397   .     A
C47    O8      1.395   .     S
C48    H16     1.084   .     S
O1     Zn1     1.801   .     S
O2     Zn1     1.801   .     S
O3     Zn4     1.800   .     S
O4     Zn4     1.801   .     S
O5     Zn3     1.801   .     S
O6     Zn3     1.800   .     S
O7     Zn2     1.801   .     S
O8     Zn2     1.801   .     S
Ni1    N4      1.895   1_455 S
Ni1    N1      1.895   1_545 S
Ni1    N3      1.895   1_445 S
C49    C50     1.411   .     A
C49    C54     1.394   .     A
C49    H17     1.084   .     S
C50    C51     1.432   .     A
C50    C85     1.403   .     A
C51    C52     1.412   .     A
C51    C88     1.403   .     A
C52    C53     1.394   .     A
C52    H18     1.084   .     S
C53    C54     1.358   .     A
C53    C56     1.377   .     A
C54    C55     1.377   .     A
C55    N9      1.359   .     A
C55    N16     1.338   .     A
N9     C56     1.359   .     A
N9     Ni2     1.895   .     S
C56    N10     1.338   .     A
N10    C57     1.338   .     A
C57    N11     1.359   .     A
C57    C60     1.377   .     A
N11    C58     1.359   .     A
N11    Ni2     1.895   .     S
C58    C59     1.377   .     A
C58    N13     1.338   .     A
C59    C60     1.358   .     A
C59    C68     1.394   .     A
C60    C65     1.394   .     A
N12    C61     1.359   .     A
N12    C64     1.359   .     A
N12    Ni2     1.895   .     S
C61    N13     1.338   .     A
C61    C62     1.377   .     A
C62    C63     1.358   .     A
C62    C72     1.394   .     A
C63    C64     1.377   .     A
C63    C69     1.394   .     A
C64    N15     1.338   .     A
C65    C66     1.411   .     A
C65    H19     1.084   .     S
C66    C67     1.432   .     A
C66    C89     1.403   .     A
C67    C68     1.412   .     A
C67    C92     1.403   .     A
C68    H20     1.084   .     S
C69    C70     1.412   .     A
C69    H21     1.084   .     S
C70    C71     1.432   .     A
C70    C93     1.403   .     A
C71    C72     1.411   .     A
C71    C96     1.403   .     A
C72    H22     1.084   .     S
N14    C73     1.359   .     A
N14    C76     1.359   .     A
N14    Ni2     1.895   .     S
C73    N15     1.338   .     A
C73    C74     1.377   .     A
C74    C75     1.358   .     A
C74    C80     1.394   .     A
C75    C76     1.377   .     A
C75    C77     1.394   .     A
C76    N16     1.338   .     A
C77    C78     1.411   .     A
C77    H23     1.084   .     S
C78    C79     1.432   .     A
C78    C81     1.403   .     A
C79    C80     1.412   .     A
C79    C84     1.403   .     A
C80    H24     1.084   .     S
C81    C82     1.397   .     A
C81    H25     1.084   .     S
C82    C83     1.412   .     A
C82    O9      1.395   .     S
C83    C84     1.397   .     A
C83    O10     1.395   .     S
C84    H26     1.084   .     S
C85    C86     1.397   .     A
C85    H27     1.084   .     S
C86    C87     1.412   .     A
C86    O11     1.395   .     S
C87    C88     1.397   .     A
C87    O12     1.395   .     S
C88    H28     1.084   .     S
C89    C90     1.397   .     A
C89    H29     1.084   .     S
C90    C91     1.412   .     A
C90    O13     1.395   .     S
C91    C92     1.397   .     A
C91    O14     1.395   .     S
C92    H30     1.084   .     S
C93    C94     1.397   .     A
C93    H31     1.084   .     S
C94    C95     1.412   .     A
C94    O15     1.395   .     S
C95    C96     1.397   .     A
C95    O16     1.395   .     S
C96    H32     1.084   .     S
O9     Zn7     1.801   .     S
O10    Zn7     1.801   .     S
O11    Zn6     1.800   .     S
O12    Zn6     1.801   .     S
O13    Zn5     1.800   .     S
O14    Zn5     1.801   .     S
O15    Zn8     1.801   .     S
O16    Zn8     1.801   .     S
C97    C98     1.398   1_556 A
C97    C102    1.377   .     A
C97    O17     1.381   .     S
C98    C97     1.398   1_554 A
C98    C99     1.377   .     A
C98    O18     1.381   .     S
C99    C100    1.402   .     A
C99    O19     1.381   .     S
C100   C101    1.417   1_554 A
C100   O20     1.395   .     S
C101   C100    1.417   1_556 A
C101   C102    1.402   .     A
C101   O21     1.395   .     S
C102   O22     1.381   .     S
O17    Cu6     1.813   .     S
O18    Cu1     1.813   .     S
O19    Cu1     1.814   .     S
O20    Zn1     1.804   .     S
O21    Zn1     1.804   1_556 S
O22    Cu6     1.814   .     S
C103   C104    1.397   1_556 A
C103   C108    1.377   .     A
C103   O23     1.381   .     S
C104   C103    1.397   1_554 A
C104   C105    1.377   .     A
C104   O24     1.381   .     S
C105   C106    1.402   .     A
C105   O25     1.381   .     S
C106   C107    1.417   1_554 A
C106   O26     1.395   .     S
C107   C106    1.417   1_556 A
C107   C108    1.402   .     A
C107   O27     1.395   .     S
C108   O28     1.381   .     S
O23    Cu7     1.813   .     S
O24    Cu2     1.813   .     S
O25    Cu2     1.814   .     S
O26    Zn2     1.804   .     S
O27    Zn2     1.804   1_556 S
O28    Cu7     1.814   .     S
C109   C110    1.398   1_556 A
C109   C114    1.377   .     A
C109   O29     1.381   .     S
C110   C109    1.398   1_554 A
C110   C111    1.377   .     A
C110   O30     1.381   .     S
C111   C112    1.402   .     A
C111   O31     1.381   .     S
C112   C113    1.417   1_554 A
C112   O32     1.395   .     S
C113   C112    1.417   1_556 A
C113   C114    1.402   .     A
C113   O33     1.395   .     S
C114   O34     1.381   .     S
O29    Cu8     1.813   .     S
O30    Cu3     1.813   .     S
O31    Cu3     1.814   .     S
O32    Zn3     1.804   .     S
O33    Zn3     1.804   1_556 S
O34    Cu8     1.814   .     S
C115   C116    1.398   1_554 A
C115   C120    1.377   .     A
C115   O35     1.381   .     S
C116   C115    1.398   1_556 A
C116   C117    1.377   .     A
C116   O36     1.381   .     S
C117   C118    1.402   .     A
C117   O37     1.381   .     S
C118   C119    1.417   1_556 A
C118   O38     1.395   .     S
C119   C118    1.417   1_554 A
C119   C120    1.402   .     A
C119   O39     1.395   .     S
C120   O40     1.381   .     S
O35    Cu4     1.813   .     S
O36    Cu5     1.813   .     S
O37    Cu5     1.814   .     S
O38    Zn4     1.804   1_556 S
O39    Zn4     1.804   .     S
O40    Cu4     1.814   .     S
C121   C122    1.398   .     A
C121   C126    1.377   .     A
C121   O41     1.381   .     S
C122   C123    1.377   .     A
C122   O42     1.381   .     S
C123   C124    1.402   .     A
C123   O43     1.381   .     S
C124   C125    1.417   .     A
C124   O44     1.395   .     S
C125   C126    1.402   .     A
C125   O45     1.395   .     S
C126   O46     1.381   .     S
O41    Cu3     1.813   .     S
O42    Cu8     1.813   .     S
O43    Cu8     1.814   .     S
O44    Zn5     1.804   .     S
O45    Zn5     1.804   .     S
O46    Cu3     1.814   .     S
C127   C128    1.398   .     A
C127   C132    1.377   .     A
C127   O47     1.381   .     S
C128   C129    1.377   .     A
C128   O48     1.381   .     S
C129   C130    1.402   .     A
C129   O49     1.381   .     S
C130   C131    1.417   .     A
C130   O50     1.395   .     S
C131   C132    1.402   .     A
C131   O51     1.395   .     S
C132   O52     1.381   .     S
O47    Cu5     1.813   .     S
O48    Cu4     1.813   .     S
O49    Cu4     1.814   .     S
O50    Zn6     1.804   .     S
O51    Zn6     1.804   .     S
O52    Cu5     1.814   .     S
C133   C134    1.398   .     A
C133   C138    1.377   .     A
C133   O53     1.381   .     S
C134   C135    1.377   .     A
C134   O54     1.381   .     S
C135   C136    1.402   .     A
C135   O55     1.381   .     S
C136   C137    1.417   .     A
C136   O56     1.395   .     S
C137   C138    1.402   .     A
C137   O57     1.395   .     S
C138   O58     1.381   .     S
O53    Cu1     1.813   .     S
O54    Cu6     1.813   .     S
O55    Cu6     1.814   .     S
O56    Zn7     1.804   .     S
O57    Zn7     1.804   .     S
O58    Cu1     1.814   .     S
C139   C140    1.398   .     A
C139   C144    1.377   .     A
C139   O59     1.381   .     S
C140   C141    1.377   .     A
C140   O60     1.381   .     S
C141   C142    1.402   .     A
C141   O61     1.381   .     S
C142   C143    1.417   .     A
C142   O62     1.395   .     S
C143   C144    1.402   .     A
C143   O63     1.395   .     S
C144   O64     1.381   .     S
O59    Cu2     1.813   .     S
O60    Cu7     1.813   .     S
O61    Cu7     1.814   .     S
O62    Zn8     1.804   .     S
O63    Zn8     1.804   .     S
O64    Cu2     1.814   .     S
Zn1    O21     1.804   1_554 S
Zn2    O27     1.804   1_554 S
Zn3    O33     1.804   1_554 S
Zn4    O38     1.804   1_554 S
