data_iab-PcM_O-Feoct
_audit_creation_date              2021-11-06
_audit_creation_method            'Materials Studio'
_symmetry_space_group_name_H-M    'I41/AMD'
_symmetry_Int_Tables_number       141
_symmetry_cell_setting            tetragonal
loop_
_symmetry_equiv_pos_as_xyz
  x,y,z
  -x+1/2,-y+1/2,z+1/2
  -y,x+1/2,z+1/4
  y+1/2,-x,z+3/4
  -x+1/2,y,-z+3/4
  x,-y+1/2,-z+1/4
  y+1/2,x+1/2,-z+1/2
  -y,-x,-z
  -x,-y+1/2,-z+1/4
  x+1/2,y,-z+3/4
  y,-x,-z
  -y+1/2,x+1/2,-z+1/2
  x+1/2,-y+1/2,z+1/2
  -x,y,z
  -y+1/2,-x,z+3/4
  y,x+1/2,z+1/4
  x+1/2,y+1/2,z+1/2
  -x,-y,z
  -y+1/2,x,z+3/4
  y,-x+1/2,z+1/4
  -x,y+1/2,-z+1/4
  x+1/2,-y,-z+3/4
  y,x,-z
  -y+1/2,-x+1/2,-z+1/2
  -x+1/2,-y,-z+3/4
  x,y+1/2,-z+1/4
  y+1/2,-x+1/2,-z+1/2
  -y,x,-z
  x,-y,z
  -x+1/2,y+1/2,z+1/2
  -y,-x+1/2,z+1/4
  y+1/2,x,z+3/4
_cell_length_a                    25.6006
_cell_length_b                    25.6006
_cell_length_c                    51.2021
_cell_angle_alpha                 90.0000
_cell_angle_beta                  90.0000
_cell_angle_gamma                 90.0000
loop_
_atom_site_label
_atom_site_type_symbol
_atom_site_fract_x
_atom_site_fract_y
_atom_site_fract_z
_atom_site_U_iso_or_equiv
_atom_site_adp_type
_atom_site_occupancy
C1     C    -0.31598   1.10552   0.25001   0.00000  Uiso   1.00
C2     C    -0.30237   1.15875   0.25001   0.00000  Uiso   1.00
C5     C    -0.40674   1.13086   0.25000   0.00000  Uiso   1.00
C7     C    -0.39491   1.04607   0.25000   0.00000  Uiso   1.00
H1     H    -0.28639   1.07531   0.25002   0.00000  Uiso   1.00
O1     O    -0.25053   1.17449   0.25003   0.00000  Uiso   1.00
C129   C    -0.31598   0.25001   0.57224   0.00000  Uiso   1.00
C130   C    -0.30238   0.25002   0.54563   0.00000  Uiso   1.00
C131   C    -0.34126   0.24999   0.52619   0.00000  Uiso   1.00
C132   C    -0.39449   0.24998   0.53299   0.00000  Uiso   1.00
C133   C    -0.40674   0.24999   0.55957   0.00000  Uiso   1.00
C134   C    -0.36914   0.25000   0.57837   0.00000  Uiso   1.00
C135   C    -0.39491   0.25000   0.60197   0.00000  Uiso   1.00
N33    N    -0.44765   0.25000   0.59882   0.00000  Uiso   1.00
C136   C    -0.45393   0.24999   0.57245   0.00000  Uiso   1.00
H33    H    -0.28639   0.25003   0.58734   0.00000  Uiso   1.00
O33    O    -0.25053   0.25006   0.53775   0.00000  Uiso   1.00
O34    O    -0.32551   0.24995   0.50027   0.00000  Uiso   1.00
H34    H    -0.42469   0.24997   0.51820   0.00000  Uiso   1.00
Fe1    Fe   -0.25000   0.25000   0.25000   0.00000  Uiso   1.00
N1     N    -0.44765   1.05235   0.25000   0.00000  Uiso   1.00
N2     N    -0.50000   1.12978   0.24999   0.00000  Uiso   1.00
N34    N    -0.50000   0.24999   0.56011   0.00000  Uiso   1.00
Fe17   Ni   -0.50000   1.00000   0.25000   0.00000  Uiso   1.00
N37    N     0.37022   0.25000   0.62500   0.00000  Uiso   1.00
Fe21   Ni   -0.50000   0.25000   0.62500   0.00000  Uiso   1.00
loop_
_geom_bond_atom_site_label_1
_geom_bond_atom_site_label_2
_geom_bond_distance
_geom_bond_site_symmetry_2
_ccdc_geom_bond_type
C1     C2      1.407   .     A
C1     C5      1.397   7_365 A
C1     H1      1.083   .     S
C2     C2      1.408   7_365 A
C2     O1      1.387   .     S
C5     C1      1.397   7_365 A
C5     C5      1.361   7_365 A
C5     C7      1.376   7_365 A
C7     C5      1.376   7_365 A
C7     N1      1.360   .     A
C7     N2      1.338   7_365 A
O1     Fe1     1.933   1_565 S
C129   C130    1.407   .     A
C129   C134    1.397   .     A
C129   H33     1.083   .     S
C130   C131    1.408   .     A
C130   O33     1.387   .     S
C131   C132    1.407   .     A
C131   O34     1.387   .     S
C132   C133    1.397   .     A
C132   H34     1.083   .     S
C133   C134    1.361   .     A
C133   C136    1.376   .     A
C134   C135    1.376   .     A
C135   N33     1.360   .     A
C135   N37     1.338   9_556 A
N33    C136    1.360   .     A
N33    Fe21    1.895   .     S
C136   N34     1.338   .     A
O33    Fe1     1.933   3     S
O34    Fe1     1.933   3     S
Fe1    O1      1.933   1_545 S
Fe1    O1      1.933   7_355 S
Fe1    O33     1.933   5_455 S
Fe1    O33     1.933   4_454 S
Fe1    O34     1.933   5_455 S
Fe1    O34     1.933   4_454 S
N1     C7      1.360   7_365 A
N1     Fe17    1.895   .     S
N2     C7      1.338   7_365 A
N2     C7      1.338   12_565 A
N34    C136    1.338   14_455 A
Fe17   N1      1.895   27_355 S
Fe17   N1      1.895   12_565 S
Fe17   N1      1.895   18_475 S
N37    C135    1.338   14    A
N37    C135    1.338   9_556 A
Fe21   N33     1.895   6_556 S
Fe21   N33     1.895   9_456 S
Fe21   N33     1.895   14_455 S
