data_iab-spacer-PcM_O-Feoct
_audit_creation_date              2021-11-06
_audit_creation_method            'Materials Studio'
_symmetry_space_group_name_H-M    'I41/AMD'
_symmetry_Int_Tables_number       141
_symmetry_cell_setting            tetragonal
loop_
_symmetry_equiv_pos_as_xyz
  x,y,z
  -x+1/2,-y+1/2,z+1/2
  -y,x+1/2,z+1/4
  y+1/2,-x,z+3/4
  -x+1/2,y,-z+3/4
  x,-y+1/2,-z+1/4
  y+1/2,x+1/2,-z+1/2
  -y,-x,-z
  -x,-y+1/2,-z+1/4
  x+1/2,y,-z+3/4
  y,-x,-z
  -y+1/2,x+1/2,-z+1/2
  x+1/2,-y+1/2,z+1/2
  -x,y,z
  -y+1/2,-x,z+3/4
  y,x+1/2,z+1/4
  x+1/2,y+1/2,z+1/2
  -x,-y,z
  -y+1/2,x,z+3/4
  y,-x+1/2,z+1/4
  -x,y+1/2,-z+1/4
  x+1/2,-y,-z+3/4
  y,x,-z
  -y+1/2,-x+1/2,-z+1/2
  -x+1/2,-y,-z+3/4
  x,y+1/2,-z+1/4
  y+1/2,-x+1/2,-z+1/2
  -y,x,-z
  x,-y,z
  -x+1/2,y+1/2,z+1/2
  -y,-x+1/2,z+1/4
  y+1/2,x,z+3/4
_cell_length_a                    46.5868
_cell_length_b                    46.5868
_cell_length_c                    93.1717
_cell_angle_alpha                 90.0000
_cell_angle_beta                  90.0000
_cell_angle_gamma                 90.0000
loop_
_atom_site_label
_atom_site_type_symbol
_atom_site_fract_x
_atom_site_fract_y
_atom_site_fract_z
_atom_site_U_iso_or_equiv
_atom_site_adp_type
_atom_site_occupancy
C1     C     0.10118   0.55801   0.25001   0.00000  Uiso   1.00
C2     C     0.10840   0.58732   0.25000   0.00000  Uiso   1.00
C5     C     0.05124   0.57193   0.25000   0.00000  Uiso   1.00
C7     C     0.05776   0.52531   0.25000   0.00000  Uiso   1.00
H1     H     0.11752   0.54150   0.25001   0.00000  Uiso   1.00
O1     O     0.13641   0.59699   0.25001   0.00000  Uiso   1.00
C129   C     0.10118  -0.25001   0.59599   0.00000  Uiso   1.00
C130   C     0.10840  -0.25001   0.58134   0.00000  Uiso   1.00
C131   C     0.08732  -0.25002   0.57080   0.00000  Uiso   1.00
C132   C     0.05801  -0.25002   0.57441   0.00000  Uiso   1.00
C133   C     0.05124  -0.25001   0.58903   0.00000  Uiso   1.00
C134   C     0.07193  -0.25001   0.59938   0.00000  Uiso   1.00
C135   C     0.05776  -0.25000   0.61234   0.00000  Uiso   1.00
N33    N     0.02878  -0.25001   0.61061   0.00000  Uiso   1.00
C136   C     0.02531  -0.25001   0.59612   0.00000  Uiso   1.00
H33    H     0.11752  -0.25000   0.60425   0.00000  Uiso   1.00
O33    O     0.13641  -0.25001   0.57651   0.00000  Uiso   1.00
O34    O     0.09699  -0.25002   0.55679   0.00000  Uiso   1.00
H34    H     0.04150  -0.25002   0.56624   0.00000  Uiso   1.00
C385   C     0.22115  -0.25000   0.52503   0.00000  Uiso   1.00
C386   C     0.19993  -0.25001   0.51442   0.00000  Uiso   1.00
C387   C     0.17084  -0.25002   0.51823   0.00000  Uiso   1.00
C388   C     0.16352  -0.25001   0.53279   0.00000  Uiso   1.00
C389   C     0.18441  -0.25000   0.54324   0.00000  Uiso   1.00
C390   C     0.21353  -0.24999   0.53958   0.00000  Uiso   1.00
O97    O     0.24967  -0.24997   0.52074   0.00000  Uiso   1.00
O98    O     0.20851  -0.25003   0.50016   0.00000  Uiso   1.00
H97    H     0.15432  -0.25003   0.51006   0.00000  Uiso   1.00
O99    O     0.13546  -0.25002   0.53758   0.00000  Uiso   1.00
O100   O     0.17483  -0.25000   0.55727   0.00000  Uiso   1.00
H98    H     0.22987  -0.24998   0.54784   0.00000  Uiso   1.00
Fe29   Cu    0.13592  -0.25001   0.55704   0.00000  Uiso   1.00
C577   C     0.19993  -0.27885   0.24999   0.00000  Uiso   1.00
C579   C     0.21353   0.67084   0.25001   0.00000  Uiso   1.00
C580   C     0.18441   0.66351   0.25000   0.00000  Uiso   1.00
O225   O     0.20851  -0.25033   0.24998   0.00000  Uiso   1.00
H161   H     0.22987   0.65432   0.25001   0.00000  Uiso   1.00
O227   O     0.17483   0.63546   0.25001   0.00000  Uiso   1.00
Fe1    Fe    0.25000  -0.25000   0.25000   0.00000  Uiso   1.00
N1     N     0.02878   0.52878   0.25000   0.00000  Uiso   1.00
Fe61   Cu    0.13592   0.63592   0.25000   0.00000  Uiso   1.00
N2     N    -0.00000   0.57132   0.24999   0.00000  Uiso   1.00
N34    N    -0.00000  -0.25002   0.58934   0.00000  Uiso   1.00
Fe17   Ni   -0.00000   0.50000   0.25000   0.00000  Uiso   1.00
N37    N     0.92868  -0.25000   0.62500   0.00000  Uiso   1.00
Fe21   Ni   -0.00000  -0.25000   0.62500   0.00000  Uiso   1.00
loop_
_geom_bond_atom_site_label_1
_geom_bond_atom_site_label_2
_geom_bond_distance
_geom_bond_site_symmetry_2
_ccdc_geom_bond_type
C1     C2      1.406   .     A
C1     C5      1.399   7_455 A
C1     H1      1.082   .     S
C2     C2      1.388   7_455 A
C2     O1      1.381   .     S
C5     C1      1.399   7_455 A
C5     C5      1.363   7_455 A
C5     C7      1.376   7_455 A
C7     C5      1.376   7_455 A
C7     N1      1.360   .     A
C7     N2      1.338   7_455 A
O1     Fe61    1.814   .     S
C129   C130    1.406   .     A
C129   C134    1.399   .     A
C129   H33     1.082   .     S
C130   C131    1.388   .     A
C130   O33     1.381   .     S
C131   C132    1.406   .     A
C131   O34     1.381   .     S
C132   C133    1.399   .     A
C132   H34     1.082   .     S
C133   C134    1.363   .     A
C133   C136    1.376   .     A
C134   C135    1.376   .     A
C135   N33     1.360   .     A
C135   N37     1.338   9_646 A
N33    C136    1.360   .     A
N33    Fe21    1.896   .     S
C136   N34     1.338   .     A
O33    Fe29    1.814   .     S
O34    Fe29    1.814   .     S
C385   C386    1.398   .     A
C385   C390    1.401   .     A
C385   O97     1.387   .     S
C386   C387    1.401   .     A
C386   O98     1.387   .     S
C387   C388    1.399   .     A
C387   H97     1.082   .     S
C388   C389    1.377   .     A
C388   O99     1.381   .     S
C389   C390    1.399   .     A
C389   O100    1.381   .     S
C390   H98     1.082   .     S
O97    Fe1     1.933   3_545 S
O98    Fe1     1.933   3_545 S
O99    Fe29    1.813   .     S
O100   Fe29    1.813   .     S
C577   C577    1.398   7_545 A
C577   C579    1.401   7_445 A
C577   O225    1.387   .     S
C579   C577    1.401   7     A
C579   C580    1.399   .     A
C579   H161    1.082   .     S
C580   C580    1.377   7_455 A
C580   O227    1.381   .     S
O225   Fe1     1.933   .     S
O227   Fe61    1.813   .     S
Fe1    O98     1.933   4_554 S
Fe1    O98     1.933   5     S
Fe1    O97     1.933   4_554 S
Fe1    O97     1.933   5     S
Fe1    O225    1.933   7_545 S
N1     C7      1.360   7_455 A
N1     Fe17    1.896   .     S
Fe61   O227    1.813   7_455 S
Fe61   O1      1.814   7_455 S
N2     C7      1.338   7_455 A
N2     C7      1.338   12    A
N34    C136    1.338   14    A
Fe17   N1      1.896   27_455 S
Fe17   N1      1.896   12    S
Fe17   N1      1.896   18_565 S
N37    C135    1.338   14_655 A
N37    C135    1.338   9_646 A
Fe21   N33     1.896   6_546 S
Fe21   N33     1.896   9_546 S
Fe21   N33     1.896   14    S
