data_iab-PcMN_O-Feoct
_audit_creation_date              2021-11-06
_audit_creation_method            'Materials Studio'
_symmetry_space_group_name_H-M    'I41/AMD'
_symmetry_Int_Tables_number       141
_symmetry_cell_setting            tetragonal
loop_
_symmetry_equiv_pos_as_xyz
  x,y,z
  -x+1/2,-y+1/2,z+1/2
  -y,x+1/2,z+1/4
  y+1/2,-x,z+3/4
  -x+1/2,y,-z+3/4
  x,-y+1/2,-z+1/4
  y+1/2,x+1/2,-z+1/2
  -y,-x,-z
  -x,-y+1/2,-z+1/4
  x+1/2,y,-z+3/4
  y,-x,-z
  -y+1/2,x+1/2,-z+1/2
  x+1/2,-y+1/2,z+1/2
  -x,y,z
  -y+1/2,-x,z+3/4
  y,x+1/2,z+1/4
  x+1/2,y+1/2,z+1/2
  -x,-y,z
  -y+1/2,x,z+3/4
  y,-x+1/2,z+1/4
  -x,y+1/2,-z+1/4
  x+1/2,-y,-z+3/4
  y,x,-z
  -y+1/2,-x+1/2,-z+1/2
  -x+1/2,-y,-z+3/4
  x,y+1/2,-z+1/4
  y+1/2,-x+1/2,-z+1/2
  -y,x,-z
  x,-y,z
  -x+1/2,y+1/2,z+1/2
  -y,-x+1/2,z+1/4
  y+1/2,x,z+3/4
_cell_length_a                    32.4775
_cell_length_b                    32.4775
_cell_length_c                    64.9575
_cell_angle_alpha                 90.0000
_cell_angle_beta                  90.0000
_cell_angle_gamma                 90.0000
loop_
_atom_site_label
_atom_site_type_symbol
_atom_site_fract_x
_atom_site_fract_y
_atom_site_fract_z
_atom_site_U_iso_or_equiv
_atom_site_adp_type
_atom_site_occupancy
C1     C    -0.35502   1.08306   0.25000   0.00000  Uiso   1.00
C2     C    -0.34378   1.12504   0.25000   0.00000  Uiso   1.00
C5     C    -0.42647   1.10311   0.25000   0.00000  Uiso   1.00
C7     C    -0.41718   1.03632   0.25000   0.00000  Uiso   1.00
H1     H    -0.33208   1.05885   0.25001   0.00000  Uiso   1.00
C33    C    -0.30212   0.86345   0.25001   0.00000  Uiso   1.00
C34    C    -0.29144   0.82178   0.25001   0.00000  Uiso   1.00
H9     H    -0.27807   0.88657   0.25001   0.00000  Uiso   1.00
O1     O    -0.25053   0.80946   0.25002   0.00000  Uiso   1.00
C193   C    -0.35502   0.25001   0.58347   0.00000  Uiso   1.00
C194   C    -0.34378   0.25001   0.56248   0.00000  Uiso   1.00
C195   C    -0.37497   0.25000   0.54689   0.00000  Uiso   1.00
C196   C    -0.41694   0.25000   0.55251   0.00000  Uiso   1.00
C197   C    -0.42647   0.25000   0.57344   0.00000  Uiso   1.00
C198   C    -0.39689   0.25000   0.58823   0.00000  Uiso   1.00
C199   C    -0.41718   0.25000   0.60684   0.00000  Uiso   1.00
N33    N    -0.45874   0.25000   0.60437   0.00000  Uiso   1.00
C200   C    -0.46368   0.25000   0.58359   0.00000  Uiso   1.00
H65    H    -0.33208   0.25001   0.59558   0.00000  Uiso   1.00
H66    H    -0.44116   0.24999   0.54104   0.00000  Uiso   1.00
C225   C    -0.30213   0.24998   0.69327   0.00000  Uiso   1.00
C226   C    -0.29145   0.24998   0.71411   0.00000  Uiso   1.00
C227   C    -0.32179   0.25001   0.72928   0.00000  Uiso   1.00
C228   C    -0.36345   0.25001   0.72394   0.00000  Uiso   1.00
H73    H    -0.27807   0.24997   0.68171   0.00000  Uiso   1.00
O33    O    -0.25053   0.24995   0.72027   0.00000  Uiso   1.00
O34    O    -0.30947   0.25004   0.74973   0.00000  Uiso   1.00
H74    H    -0.38658   0.25002   0.73596   0.00000  Uiso   1.00
Fe1    Fe   -0.25000   0.25000   0.25000   0.00000  Uiso   1.00
N1     N    -0.45874   1.04126   0.25000   0.00000  Uiso   1.00
N2     N    -0.50000   1.10228   0.25000   0.00000  Uiso   1.00
N34    N    -0.50000   0.25000   0.57386   0.00000  Uiso   1.00
Fe17   Ni   -0.50000   1.00000   0.25000   0.00000  Uiso   1.00
N37    N     0.39772   0.25000   0.62500   0.00000  Uiso   1.00
Fe21   Ni   -0.50000   0.25000   0.62500   0.00000  Uiso   1.00
loop_
_geom_bond_atom_site_label_1
_geom_bond_atom_site_label_2
_geom_bond_distance
_geom_bond_site_symmetry_2
_ccdc_geom_bond_type
C1     C2      1.411   .     A
C1     C5      1.394   7_365 A
C1     H1      1.084   .     S
C2     C2      1.432   7_365 A
C2     C33     1.404   29_575 A
C5     C1      1.394   7_365 A
C5     C5      1.359   7_365 A
C5     C7      1.377   7_365 A
C7     C5      1.377   7_365 A
C7     N1      1.359   .     A
C7     N2      1.338   7_365 A
C33    C2      1.404   29_575 A
C33    C34     1.397   .     A
C33    H9      1.084   .     S
C34    C34     1.394   24    A
C34    O1      1.388   .     S
O1     Fe1     1.931   27_455 S
C193   C194    1.411   .     A
C193   C198    1.394   .     A
C193   H65     1.084   .     S
C194   C195    1.432   .     A
C194   C225    1.404   6_556 A
C195   C196    1.411   .     A
C195   C228    1.404   6_556 A
C196   C197    1.394   .     A
C196   H66     1.084   .     S
C197   C198    1.359   .     A
C197   C200    1.377   .     A
C198   C199    1.377   .     A
C199   N33     1.359   .     A
C199   N37     1.338   9_556 A
N33    C200    1.359   .     A
N33    Fe21    1.895   .     S
C200   N34     1.338   .     A
C225   C194    1.404   6_556 A
C225   C226    1.397   .     A
C225   H73     1.084   .     S
C226   C227    1.394   .     A
C226   O33     1.388   .     S
C227   C228    1.397   .     A
C227   O34     1.388   .     S
C228   C195    1.404   6_556 A
C228   H74     1.084   .     S
O33    Fe1     1.931   2_455 S
O34    Fe1     1.931   2_455 S
Fe1    O1      1.931   29_565 S
Fe1    O1      1.931   12    S
Fe1    O33     1.931   2_454 S
Fe1    O33     1.931   8_556 S
Fe1    O34     1.931   2_454 S
Fe1    O34     1.931   8_556 S
N1     C7      1.359   7_365 A
N1     Fe17    1.895   .     S
N2     C7      1.338   7_365 A
N2     C7      1.338   12_565 A
N34    C200    1.338   14_455 A
Fe17   N1      1.895   12_565 S
Fe17   N1      1.895   18_475 S
Fe17   N1      1.895   27_355 S
N37    C199    1.338   9_556 A
N37    C199    1.338   14    A
Fe21   N33     1.895   6_556 S
Fe21   N33     1.895   14_455 S
Fe21   N33     1.895   9_456 S
