data_iab-spacer-PcMN_O-Feoct
_audit_creation_date              2021-11-06
_audit_creation_method            'Materials Studio'
_symmetry_space_group_name_H-M    'I41/AMD'
_symmetry_Int_Tables_number       141
_symmetry_cell_setting            tetragonal
loop_
_symmetry_equiv_pos_as_xyz
  x,y,z
  -x+1/2,-y+1/2,z+1/2
  -y,x+1/2,z+1/4
  y+1/2,-x,z+3/4
  -x+1/2,y,-z+3/4
  x,-y+1/2,-z+1/4
  y+1/2,x+1/2,-z+1/2
  -y,-x,-z
  -x,-y+1/2,-z+1/4
  x+1/2,y,-z+3/4
  y,-x,-z
  -y+1/2,x+1/2,-z+1/2
  x+1/2,-y+1/2,z+1/2
  -x,y,z
  -y+1/2,-x,z+3/4
  y,x+1/2,z+1/4
  x+1/2,y+1/2,z+1/2
  -x,-y,z
  -y+1/2,x,z+3/4
  y,-x+1/2,z+1/4
  -x,y+1/2,-z+1/4
  x+1/2,-y,-z+3/4
  y,x,-z
  -y+1/2,-x+1/2,-z+1/2
  -x+1/2,-y,-z+3/4
  x,y+1/2,-z+1/4
  y+1/2,-x+1/2,-z+1/2
  -y,x,-z
  x,-y,z
  -x+1/2,y+1/2,z+1/2
  -y,-x+1/2,z+1/4
  y+1/2,x,z+3/4
_cell_length_a                    53.4592
_cell_length_b                    53.4592
_cell_length_c                    106.9169
_cell_angle_alpha                 90.0000
_cell_angle_beta                  90.0000
_cell_angle_gamma                 90.0000
loop_
_atom_site_label
_atom_site_type_symbol
_atom_site_fract_x
_atom_site_fract_y
_atom_site_fract_z
_atom_site_U_iso_or_equiv
_atom_site_adp_type
_atom_site_occupancy
C1     C    -0.41192   1.05045   0.25000   0.00000  Uiso   1.00
C2     C    -0.40508   1.07595   0.25000   0.00000  Uiso   1.00
C5     C    -0.45533   1.06265   0.25000   0.00000  Uiso   1.00
C7     C    -0.44969   1.02206   0.25000   0.00000  Uiso   1.00
H1     H    -0.39798   1.03574   0.25001   0.00000  Uiso   1.00
C33    C    -0.37975   0.91703   0.25000   0.00000  Uiso   1.00
C34    C    -0.37349   0.89167   0.25000   0.00000  Uiso   1.00
H9     H    -0.36507   0.93100   0.25001   0.00000  Uiso   1.00
O1     O    -0.34904   0.88331   0.25000   0.00000  Uiso   1.00
C193   C    -0.41192   0.24999   0.59977   0.00000  Uiso   1.00
C194   C    -0.40508   0.24999   0.58703   0.00000  Uiso   1.00
C195   C    -0.42405   0.24999   0.57754   0.00000  Uiso   1.00
C196   C    -0.44955   0.24998   0.58096   0.00000  Uiso   1.00
C197   C    -0.45533   0.24999   0.59368   0.00000  Uiso   1.00
C198   C    -0.43735   0.24999   0.60266   0.00000  Uiso   1.00
C199   C    -0.44969   0.25000   0.61397   0.00000  Uiso   1.00
N33    N    -0.47493   0.24999   0.61247   0.00000  Uiso   1.00
C200   C    -0.47794   0.24999   0.59984   0.00000  Uiso   1.00
H65    H    -0.39798   0.25000   0.60713   0.00000  Uiso   1.00
H66    H    -0.46426   0.24998   0.57399   0.00000  Uiso   1.00
C225   C    -0.37975   0.25001   0.66648   0.00000  Uiso   1.00
C226   C    -0.37349   0.25001   0.67917   0.00000  Uiso   1.00
C227   C    -0.39167   0.25002   0.68826   0.00000  Uiso   1.00
C228   C    -0.41703   0.25002   0.68512   0.00000  Uiso   1.00
H73    H    -0.36507   0.25000   0.65950   0.00000  Uiso   1.00
O33    O    -0.34904   0.25001   0.68335   0.00000  Uiso   1.00
O34    O    -0.38331   0.25002   0.70048   0.00000  Uiso   1.00
H74    H    -0.43100   0.25002   0.69247   0.00000  Uiso   1.00
C577   C    -0.27514   0.25000   0.52182   0.00000  Uiso   1.00
C578   C    -0.29363   0.24999   0.51257   0.00000  Uiso   1.00
C579   C    -0.31898   0.24998   0.51589   0.00000  Uiso   1.00
C580   C    -0.32537   0.24999   0.52858   0.00000  Uiso   1.00
C581   C    -0.30716   0.25000   0.53768   0.00000  Uiso   1.00
C582   C    -0.28178   0.25001   0.53449   0.00000  Uiso   1.00
O97    O    -0.25029   0.25002   0.51808   0.00000  Uiso   1.00
O98    O    -0.28615   0.24997   0.50014   0.00000  Uiso   1.00
H193   H    -0.33338   0.24997   0.50877   0.00000  Uiso   1.00
O99    O    -0.34981   0.24998   0.53275   0.00000  Uiso   1.00
O100   O    -0.31551   0.25000   0.54991   0.00000  Uiso   1.00
H194   H    -0.26754   0.25002   0.54169   0.00000  Uiso   1.00
Fe29   Cu   -0.34942   0.24999   0.54971   0.00000  Uiso   1.00
C769   C    -0.29363   0.22486   0.25000   0.00000  Uiso   1.00
C771   C    -0.28178   1.18101   0.25001   0.00000  Uiso   1.00
C772   C    -0.30716   1.17463   0.25000   0.00000  Uiso   1.00
O225   O    -0.28616   0.24971   0.24999   0.00000  Uiso   1.00
H257   H    -0.26754   1.16662   0.25001   0.00000  Uiso   1.00
O227   O    -0.31551   1.15019   0.25000   0.00000  Uiso   1.00
Fe1    Fe   -0.25000   0.25000   0.25000   0.00000  Uiso   1.00
N1     N    -0.47493   1.02507   0.25000   0.00000  Uiso   1.00
Fe61   Cu   -0.34942   1.15058   0.25000   0.00000  Uiso   1.00
N2     N    -0.50000   1.06214   0.25000   0.00000  Uiso   1.00
N34    N    -0.50000   0.24999   0.59393   0.00000  Uiso   1.00
Fe17   Ni   -0.50000   1.00000   0.25000   0.00000  Uiso   1.00
N37    N     0.43786   0.25000   0.62500   0.00000  Uiso   1.00
Fe21   Ni   -0.50000   0.25000   0.62500   0.00000  Uiso   1.00
loop_
_geom_bond_atom_site_label_1
_geom_bond_atom_site_label_2
_geom_bond_distance
_geom_bond_site_symmetry_2
_ccdc_geom_bond_type
C1     C2      1.411   .     A
C1     C5      1.394   7_365 A
C1     H1      1.084   .     S
C2     C2      1.435   7_365 A
C2     C33     1.405   29_575 A
C5     C1      1.394   7_365 A
C5     C5      1.359   7_365 A
C5     C7      1.377   7_365 A
C7     C5      1.377   7_365 A
C7     N1      1.359   .     A
C7     N2      1.338   7_365 A
C33    C2      1.405   29_575 A
C33    C34     1.396   .     A
C33    H9      1.083   .     S
C34    C34     1.374   24    A
C34    O1      1.381   .     S
O1     Fe61    1.812   27_355 S
C193   C194    1.411   .     A
C193   C198    1.394   .     A
C193   H65     1.084   .     S
C194   C195    1.435   .     A
C194   C225    1.405   6_556 A
C195   C196    1.411   .     A
C195   C228    1.405   6_556 A
C196   C197    1.394   .     A
C196   H66     1.084   .     S
C197   C198    1.359   .     A
C197   C200    1.377   .     A
C198   C199    1.377   .     A
C199   N33     1.359   .     A
C199   N37     1.338   9_556 A
N33    C200    1.359   .     A
N33    Fe21    1.895   .     S
C200   N34     1.338   .     A
C225   C194    1.405   6_556 A
C225   C226    1.396   .     A
C225   H73     1.083   .     S
C226   C227    1.374   .     A
C226   O33     1.381   .     S
C227   C228    1.396   .     A
C227   O34     1.381   .     S
C228   C195    1.405   6_556 A
C228   H74     1.083   .     S
O33    Fe29    1.812   6_556 S
O34    Fe29    1.812   6_556 S
C577   C578    1.398   .     A
C577   C582    1.401   .     A
C577   O97     1.387   .     S
C578   C579    1.401   .     A
C578   O98     1.387   .     S
C579   C580    1.399   .     A
C579   H193    1.082   .     S
C580   C581    1.377   .     A
C580   O99     1.381   .     S
C581   C582    1.399   .     A
C581   O100    1.381   .     S
C582   H194    1.082   .     S
O97    Fe1     1.933   3     S
O98    Fe1     1.933   3     S
O99    Fe29    1.813   .     S
O100   Fe29    1.813   .     S
Fe29   O34     1.812   6_556 S
Fe29   O33     1.812   6_556 S
C769   C769    1.398   7_455 A
C769   C771    1.401   7_355 A
C769   O225    1.387   .     S
C771   C769    1.401   7_465 A
C771   C772    1.399   .     A
C771   H257    1.082   .     S
C772   C772    1.377   7_365 A
C772   O227    1.381   .     S
O225   Fe1     1.933   .     S
O227   Fe61    1.813   .     S
Fe1    O98     1.933   4_454 S
Fe1    O98     1.933   5_455 S
Fe1    O97     1.933   4_454 S
Fe1    O97     1.933   5_455 S
Fe1    O225    1.933   7_455 S
N1     C7      1.359   7_365 A
N1     Fe17    1.895   .     S
Fe61   O1      1.812   29_575 S
Fe61   O1      1.812   12_565 S
Fe61   O227    1.813   7_365 S
N2     C7      1.338   7_365 A
N2     C7      1.338   12_565 A
N34    C200    1.338   14_455 A
Fe17   N1      1.895   12_565 S
Fe17   N1      1.895   18_475 S
Fe17   N1      1.895   27_355 S
N37    C199    1.338   9_556 A
N37    C199    1.338   14    A
Fe21   N33     1.895   6_556 S
Fe21   N33     1.895   14_455 S
Fe21   N33     1.895   9_456 S
