data_jph-PcMN_O-Feoct
_audit_creation_date              2021-11-06
_audit_creation_method            'Materials Studio'
_symmetry_space_group_name_H-M    'IMMA'
_symmetry_Int_Tables_number       74
_symmetry_cell_setting            orthorhombic
loop_
_symmetry_equiv_pos_as_xyz
  x,y,z
  -x,-y+1/2,z
  -x,y+1/2,-z
  x,-y,-z
  -x,-y,-z
  x,y+1/2,-z
  x,-y+1/2,z
  -x,y,z
  x+1/2,y+1/2,z+1/2
  -x+1/2,-y,z+1/2
  -x+1/2,y,-z+1/2
  x+1/2,-y+1/2,-z+1/2
  -x+1/2,-y+1/2,-z+1/2
  x+1/2,y,-z+1/2
  x+1/2,-y,z+1/2
  -x+1/2,y+1/2,z+1/2
_cell_length_a                    43.2533
_cell_length_b                    43.2523
_cell_length_c                    21.5211
_cell_angle_alpha                 90.0000
_cell_angle_beta                  90.0000
_cell_angle_gamma                 90.0000
loop_
_atom_site_label
_atom_site_type_symbol
_atom_site_fract_x
_atom_site_fract_y
_atom_site_fract_z
_atom_site_U_iso_or_equiv
_atom_site_adp_type
_atom_site_occupancy
Fe1    Fe    0.68772   0.56227  -0.37499   0.00000  Uiso   1.00
C1     C     0.60886   0.81237  -0.37504   0.00000  Uiso   1.00
C2     C     0.61730   0.84389  -0.37501   0.00000  Uiso   1.00
C3     C     0.59389   0.86731  -0.37495   0.00000  Uiso   1.00
C4     C     0.56237   0.85886  -0.37492   0.00000  Uiso   1.00
C5     C     0.55521   0.82743  -0.37495   0.00000  Uiso   1.00
C6     C     0.57743   0.80522  -0.37500   0.00000  Uiso   1.00
C7     C     0.56219   0.77727  -0.37502   0.00000  Uiso   1.00
N1     N     0.53098   0.78098  -0.37497   0.00000  Uiso   1.00
C8     C     0.52727   0.81219  -0.37493   0.00000  Uiso   1.00
H1     H     0.62609   0.79419  -0.37508   0.00000  Uiso   1.00
H2     H     0.54419   0.87609  -0.37487   0.00000  Uiso   1.00
C33    C     0.64858   0.64747  -0.37505   0.00000  Uiso   1.00
C34    C     0.65660   0.61618  -0.37503   0.00000  Uiso   1.00
C35    C     0.63382   0.59340  -0.37494   0.00000  Uiso   1.00
C36    C     0.60253   0.60142  -0.37491   0.00000  Uiso   1.00
H9     H     0.66664   0.66483  -0.37511   0.00000  Uiso   1.00
O1     O     0.68732   0.60693  -0.37511   0.00000  Uiso   1.00
O2     O     0.64307   0.56267  -0.37487   0.00000  Uiso   1.00
H10    H     0.58517   0.58336  -0.37485   0.00000  Uiso   1.00
C193   C     0.68770   0.52296   0.45379   0.00000  Uiso   1.00
C194   C     0.68770   0.53115  -0.48331   0.00000  Uiso   1.00
C195   C     0.68769   0.50834  -0.43741   0.00000  Uiso   1.00
H65    H     0.68770   0.54065   0.41820   0.00000  Uiso   1.00
O33    O     0.68772   0.56188  -0.46478   0.00000  Uiso   1.00
O34    O     0.68769   0.51760  -0.37568   0.00000  Uiso   1.00
C199   C     1.22704   0.93771  -0.29621   0.00000  Uiso   1.00
C200   C     1.25835   0.93770  -0.31259   0.00000  Uiso   1.00
C201   C     1.28115   0.93771  -0.26669   0.00000  Uiso   1.00
H67    H     1.20935   0.93771  -0.33181   0.00000  Uiso   1.00
O37    O     1.26761   0.93769  -0.37432   0.00000  Uiso   1.00
O38    O     1.31188   0.93773  -0.28521   0.00000  Uiso   1.00
N2     N     0.50000   0.82680  -0.37491   0.00000  Uiso   1.00
N5     N     1.42320   0.75000  -0.37504   0.00000  Uiso   1.00
Fe17   Ni    0.50000   0.75000  -0.37498   0.00000  Uiso   1.00
loop_
_geom_bond_atom_site_label_1
_geom_bond_atom_site_label_2
_geom_bond_distance
_geom_bond_site_symmetry_2
_ccdc_geom_bond_type
Fe1    O1      1.931   .     S
Fe1    O2      1.931   .     S
Fe1    O33     1.932   .     S
Fe1    O34     1.932   .     S
Fe1    O37     1.932   2_765 S
Fe1    O38     1.932   2_765 S
C1     C2      1.411   .     A
C1     C6      1.394   .     A
C1     H1      1.084   .     S
C2     C3      1.432   .     A
C2     C33     1.404   7_565 A
C3     C4      1.411   .     A
C3     C36     1.404   7_565 A
C4     C5      1.394   .     A
C4     H2      1.084   .     S
C5     C6      1.359   .     A
C5     C8      1.377   .     A
C6     C7      1.377   .     A
C7     N1      1.359   .     A
C7     N5      1.338   2_765 A
N1     C8      1.359   .     A
N1     Fe17    1.895   .     S
C8     N2      1.338   .     A
C33    C2      1.404   7_565 A
C33    C34     1.397   .     A
C33    H9      1.084   .     S
C34    C35     1.394   .     A
C34    O1      1.388   .     S
C35    C36     1.397   .     A
C35    O2      1.388   .     S
C36    C3      1.404   7_565 A
C36    H10     1.084   .     S
C193   C194    1.399   1_556 A
C193   C195    1.399   4_565 A
C193   H65     1.083   .     S
C194   C193    1.399   1_554 A
C194   C195    1.396   .     A
C194   O33     1.388   .     S
C195   C193    1.399   4_565 A
C195   O34     1.388   .     S
C199   C200    1.399   .     A
C199   C201    1.399   11_754 A
C199   H67     1.083   .     S
C200   C201    1.396   .     A
C200   O37     1.388   .     S
C201   C199    1.399   11_754 A
C201   O38     1.388   .     S
O37    Fe1     1.932   2_765 S
O38    Fe1     1.932   2_765 S
N2     C8      1.338   8_655 A
N5     C7      1.338   8_755 A
N5     C7      1.338   2_765 A
Fe17   N1      1.895   2_665 S
Fe17   N1      1.895   7_565 S
Fe17   N1      1.895   8_655 S
