data_jph-spacer-PcMN_O-Feoct
_audit_creation_date              2021-11-06
_audit_creation_method            'Materials Studio'
_symmetry_space_group_name_H-M    'IMMA'
_symmetry_Int_Tables_number       74
_symmetry_cell_setting            orthorhombic
loop_
_symmetry_equiv_pos_as_xyz
  x,y,z
  -x,-y+1/2,z
  -x,y+1/2,-z
  x,-y,-z
  -x,-y,-z
  x,y+1/2,-z
  x,-y+1/2,z
  -x,y,z
  x+1/2,y+1/2,z+1/2
  -x+1/2,-y,z+1/2
  -x+1/2,y,-z+1/2
  x+1/2,-y+1/2,-z+1/2
  -x+1/2,-y+1/2,-z+1/2
  x+1/2,y,-z+1/2
  x+1/2,-y,z+1/2
  -x+1/2,y+1/2,z+1/2
_cell_length_a                    64.2381
_cell_length_b                    64.2381
_cell_length_c                    21.5127
_cell_angle_alpha                 90.0000
_cell_angle_beta                  90.0000
_cell_angle_gamma                 90.0000
loop_
_atom_site_label
_atom_site_type_symbol
_atom_site_fract_x
_atom_site_fract_y
_atom_site_fract_z
_atom_site_U_iso_or_equiv
_atom_site_adp_type
_atom_site_occupancy
Fe1    Fe    0.20805   0.54195   0.62499   0.00000  Uiso   1.00
C1     C     0.07330   0.79199   0.62485   0.00000  Uiso   1.00
C2     C     0.07899   0.81320   0.62489   0.00000  Uiso   1.00
C3     C     0.06320   0.82899   0.62497   0.00000  Uiso   1.00
C4     C     0.04199   0.82330   0.62501   0.00000  Uiso   1.00
C5     C     0.03718   0.80214   0.62497   0.00000  Uiso   1.00
C6     C     0.05214   0.78718   0.62489   0.00000  Uiso   1.00
C7     C     0.04187   0.76836   0.62488   0.00000  Uiso   1.00
N1     N     0.02086   0.77086   0.62494   0.00000  Uiso   1.00
C8     C     0.01836   0.79187   0.62499   0.00000  Uiso   1.00
H1     H     0.08490   0.77974   0.62479   0.00000  Uiso   1.00
H2     H     0.02974   0.83490   0.62507   0.00000  Uiso   1.00
C33    C     0.10007   0.68095   0.62485   0.00000  Uiso   1.00
C34    C     0.10528   0.65985   0.62489   0.00000  Uiso   1.00
C35    C     0.09015   0.64472   0.62497   0.00000  Uiso   1.00
C36    C     0.06905   0.64993   0.62502   0.00000  Uiso   1.00
H9     H     0.11229   0.69258   0.62478   0.00000  Uiso   1.00
O1     O     0.12563   0.65289   0.62484   0.00000  Uiso   1.00
O2     O     0.09711   0.62437   0.62502   0.00000  Uiso   1.00
H10    H     0.05742   0.63771   0.62508   0.00000  Uiso   1.00
C193   C     0.20804   0.51545   1.45375   0.00000  Uiso   1.00
C194   C     0.20804   0.52098   0.51667   0.00000  Uiso   1.00
C195   C     0.20803   0.50563   0.56260   0.00000  Uiso   1.00
H65    H     0.20804   0.52736   1.41813   0.00000  Uiso   1.00
O33    O     0.20805   0.54167   0.53517   0.00000  Uiso   1.00
O34    O     0.20803   0.51187   0.62435   0.00000  Uiso   1.00
C199   C     0.73454   0.95803   0.70375   0.00000  Uiso   1.00
C200   C     0.75563   0.95803   0.68739   0.00000  Uiso   1.00
C201   C     0.77098   0.95803   0.73333   0.00000  Uiso   1.00
H67    H     0.72264   0.95803   0.66814   0.00000  Uiso   1.00
O37    O     0.76187   0.95802   0.62564   0.00000  Uiso   1.00
O38    O     0.79167   0.95804   0.71482   0.00000  Uiso   1.00
C289   C     0.18713   0.57826   0.62491   0.00000  Uiso   1.00
C290   C     0.17174   0.56287   0.62504   0.00000  Uiso   1.00
C291   C     0.15064   0.56840   0.62508   0.00000  Uiso   1.00
C292   C     0.14533   0.58952   0.62501   0.00000  Uiso   1.00
C293   C     0.16049   0.60467   0.62490   0.00000  Uiso   1.00
C294   C     0.18160   0.59936   0.62485   0.00000  Uiso   1.00
O97    O     0.20781   0.57204   0.62483   0.00000  Uiso   1.00
O98    O     0.17796   0.54219   0.62514   0.00000  Uiso   1.00
H97    H     0.13866   0.55655   0.62517   0.00000  Uiso   1.00
O99    O     0.12499   0.59647   0.62504   0.00000  Uiso   1.00
O100   O     0.15354   0.62501   0.62485   0.00000  Uiso   1.00
H98    H     0.19345   0.61134   0.62476   0.00000  Uiso   1.00
Fe21   Cu    0.12532   0.62469   0.62494   0.00000  Uiso   1.00
N2     N    -0.00000   0.80171   0.62502   0.00000  Uiso   1.00
N5     N     0.94829   0.75000   0.62485   0.00000  Uiso   1.00
Fe17   Ni   -0.00000   0.75000   0.62492   0.00000  Uiso   1.00
loop_
_geom_bond_atom_site_label_1
_geom_bond_atom_site_label_2
_geom_bond_distance
_geom_bond_site_symmetry_2
_ccdc_geom_bond_type
Fe1    O33     1.932   .     S
Fe1    O34     1.932   .     S
Fe1    O37     1.932   2_665 S
Fe1    O38     1.932   2_665 S
Fe1    O97     1.933   .     S
Fe1    O98     1.933   .     S
C1     C2      1.411   .     A
C1     C6      1.394   .     A
C1     H1      1.084   .     S
C2     C3      1.435   .     A
C2     C33     1.405   7_565 A
C3     C4      1.411   .     A
C3     C36     1.405   7_565 A
C4     C5      1.394   .     A
C4     H2      1.084   .     S
C5     C6      1.359   .     A
C5     C8      1.377   .     A
C6     C7      1.377   .     A
C7     N1      1.359   .     A
C7     N5      1.338   2_665 A
N1     C8      1.359   .     A
N1     Fe17    1.895   .     S
C8     N2      1.338   .     A
C33    C2      1.405   7_565 A
C33    C34     1.396   .     A
C33    H9      1.083   .     S
C34    C35     1.374   .     A
C34    O1      1.381   .     S
C35    C36     1.396   .     A
C35    O2      1.381   .     S
C36    C3      1.405   7_565 A
C36    H10     1.083   .     S
O1     Fe21    1.812   .     S
O2     Fe21    1.812   .     S
C193   C194    1.399   1_556 A
C193   C195    1.399   4_567 A
C193   H65     1.083   .     S
C194   C193    1.399   1_554 A
C194   C195    1.396   .     A
C194   O33     1.388   .     S
C195   C193    1.399   4_567 A
C195   O34     1.388   .     S
C199   C200    1.399   .     A
C199   C201    1.399   11_656 A
C199   H67     1.083   .     S
C200   C201    1.396   .     A
C200   O37     1.388   .     S
C201   C199    1.399   11_656 A
C201   O38     1.388   .     S
O37    Fe1     1.932   2_665 S
O38    Fe1     1.932   2_665 S
C289   C290    1.398   .     A
C289   C294    1.401   .     A
C289   O97     1.387   .     S
C290   C291    1.401   .     A
C290   O98     1.387   .     S
C291   C292    1.399   .     A
C291   H97     1.082   .     S
C292   C293    1.377   .     A
C292   O99     1.381   .     S
C293   C294    1.399   .     A
C293   O100    1.381   .     S
C294   H98     1.082   .     S
O99    Fe21    1.813   .     S
O100   Fe21    1.813   .     S
N2     C8      1.338   8     A
N5     C7      1.338   8_655 A
N5     C7      1.338   2_665 A
Fe17   N1      1.895   2_565 S
Fe17   N1      1.895   7_565 S
Fe17   N1      1.895   8     S
