data_jph-spacer-PcM_O-Feoct
_audit_creation_date              2021-11-06
_audit_creation_method            'Materials Studio'
_symmetry_space_group_name_H-M    'IMMA'
_symmetry_Int_Tables_number       74
_symmetry_cell_setting            orthorhombic
loop_
_symmetry_equiv_pos_as_xyz
  x,y,z
  -x,-y+1/2,z
  -x,y+1/2,-z
  x,-y,-z
  -x,-y,-z
  x,y+1/2,-z
  x,-y+1/2,z
  -x,y,z
  x+1/2,y+1/2,z+1/2
  -x+1/2,-y,z+1/2
  -x+1/2,y,-z+1/2
  x+1/2,-y+1/2,-z+1/2
  -x+1/2,-y+1/2,-z+1/2
  x+1/2,y,-z+1/2
  x+1/2,-y,z+1/2
  -x+1/2,y+1/2,z+1/2
_cell_length_a                    57.3656
_cell_length_b                    57.3657
_cell_length_c                    21.5126
_cell_angle_alpha                 90.0000
_cell_angle_beta                  90.0000
_cell_angle_gamma                 90.0000
loop_
_atom_site_label
_atom_site_type_symbol
_atom_site_fract_x
_atom_site_fract_y
_atom_site_fract_z
_atom_site_U_iso_or_equiv
_atom_site_adp_type
_atom_site_occupancy
Fe1    Fe    0.70302   0.54698  -0.37500   0.00000  Uiso   1.00
C1     C     0.58216   0.79711  -0.37510   0.00000  Uiso   1.00
C2     C     0.58803   0.82092  -0.37506   0.00000  Uiso   1.00
C3     C     0.57092   0.83803  -0.37497   0.00000  Uiso   1.00
C4     C     0.54711   0.83216  -0.37493   0.00000  Uiso   1.00
C5     C     0.54161   0.80841  -0.37497   0.00000  Uiso   1.00
C6     C     0.55841   0.79161  -0.37506   0.00000  Uiso   1.00
C7     C     0.54691   0.77056  -0.37508   0.00000  Uiso   1.00
N1     N     0.52337   0.77337  -0.37502   0.00000  Uiso   1.00
C8     C     0.52056   0.79691  -0.37496   0.00000  Uiso   1.00
H1     H     0.59544   0.78370  -0.37517   0.00000  Uiso   1.00
O1     O     0.61078   0.82876  -0.37510   0.00000  Uiso   1.00
O2     O     0.57876   0.86078  -0.37493   0.00000  Uiso   1.00
H2     H     0.53370   0.84544  -0.37486   0.00000  Uiso   1.00
C129   C     0.70301   0.51731   0.45375   0.00000  Uiso   1.00
C130   C     0.70301   0.52349  -0.48333   0.00000  Uiso   1.00
C131   C     0.70300   0.50630  -0.43739   0.00000  Uiso   1.00
H33    H     0.70301   0.53063   0.41813   0.00000  Uiso   1.00
O33    O     0.70302   0.54666  -0.46482   0.00000  Uiso   1.00
O34    O     0.70300   0.51329  -0.37565   0.00000  Uiso   1.00
C135   C     1.23269   0.95300  -0.29625   0.00000  Uiso   1.00
C136   C     1.25630   0.95300  -0.31261   0.00000  Uiso   1.00
C137   C     1.27349   0.95301  -0.26667   0.00000  Uiso   1.00
H35    H     1.21936   0.95300  -0.33187   0.00000  Uiso   1.00
O37    O     1.26329   0.95300  -0.37435   0.00000  Uiso   1.00
O38    O     1.29666   0.95302  -0.28518   0.00000  Uiso   1.00
C225   C     0.67960   0.58764  -0.37507   0.00000  Uiso   1.00
C226   C     0.66236   0.57040  -0.37494   0.00000  Uiso   1.00
C227   C     0.63874   0.57659  -0.37490   0.00000  Uiso   1.00
C228   C     0.63279   0.60024  -0.37496   0.00000  Uiso   1.00
C229   C     0.64976   0.61721  -0.37506   0.00000  Uiso   1.00
C230   C     0.67341   0.61126  -0.37512   0.00000  Uiso   1.00
O97    O     0.70276   0.58067  -0.37516   0.00000  Uiso   1.00
O98    O     0.66933   0.54724  -0.37485   0.00000  Uiso   1.00
H65    H     0.62532   0.56332  -0.37481   0.00000  Uiso   1.00
O99    O     0.61001   0.60802  -0.37492   0.00000  Uiso   1.00
O100   O     0.64198   0.63999  -0.37510   0.00000  Uiso   1.00
H66    H     0.68668   0.62468  -0.37521   0.00000  Uiso   1.00
Fe21   Cu    0.61038   0.63962  -0.37501   0.00000  Uiso   1.00
N2     N     0.50000   0.80792  -0.37492   0.00000  Uiso   1.00
N5     N     1.44208   0.75000  -0.37511   0.00000  Uiso   1.00
Fe17   Ni    0.50000   0.75000  -0.37503   0.00000  Uiso   1.00
loop_
_geom_bond_atom_site_label_1
_geom_bond_atom_site_label_2
_geom_bond_distance
_geom_bond_site_symmetry_2
_ccdc_geom_bond_type
Fe1    O33     1.932   .     S
Fe1    O34     1.932   .     S
Fe1    O37     1.932   2_765 S
Fe1    O38     1.932   2_765 S
Fe1    O97     1.933   .     S
Fe1    O98     1.933   .     S
C1     C2      1.406   .     A
C1     C6      1.399   .     A
C1     H1      1.082   .     S
C2     C3      1.388   .     A
C2     O1      1.381   .     S
C3     C4      1.406   .     A
C3     O2      1.381   .     S
C4     C5      1.399   .     A
C4     H2      1.082   .     S
C5     C6      1.363   .     A
C5     C8      1.376   .     A
C6     C7      1.376   .     A
C7     N1      1.360   .     A
C7     N5      1.338   2_765 A
N1     C8      1.360   .     A
N1     Fe17    1.896   .     S
C8     N2      1.338   .     A
O1     Fe21    1.814   7_565 S
O2     Fe21    1.814   7_565 S
C129   C130    1.399   1_556 A
C129   C131    1.399   4_565 A
C129   H33     1.083   .     S
C130   C129    1.399   1_554 A
C130   C131    1.396   .     A
C130   O33     1.388   .     S
C131   C129    1.399   4_565 A
C131   O34     1.388   .     S
C135   C136    1.399   .     A
C135   C137    1.399   11_754 A
C135   H35     1.083   .     S
C136   C137    1.396   .     A
C136   O37     1.388   .     S
C137   C135    1.399   11_754 A
C137   O38     1.388   .     S
O37    Fe1     1.932   2_765 S
O38    Fe1     1.932   2_765 S
C225   C226    1.398   .     A
C225   C230    1.401   .     A
C225   O97     1.387   .     S
C226   C227    1.401   .     A
C226   O98     1.387   .     S
C227   C228    1.399   .     A
C227   H65     1.082   .     S
C228   C229    1.377   .     A
C228   O99     1.381   .     S
C229   C230    1.399   .     A
C229   O100    1.381   .     S
C230   H66     1.082   .     S
O99    Fe21    1.813   .     S
O100   Fe21    1.813   .     S
Fe21   O2      1.814   7_565 S
Fe21   O1      1.814   7_565 S
N2     C8      1.338   8_655 A
N5     C7      1.338   2_765 A
N5     C7      1.338   8_755 A
Fe17   N1      1.896   7_565 S
Fe17   N1      1.896   8_655 S
Fe17   N1      1.896   2_665 S
