data_lig-spacer-B_O-Feoct
_audit_creation_date              2021-11-06
_audit_creation_method            'Materials Studio'
_symmetry_space_group_name_H-M    'P2'
_symmetry_Int_Tables_number       3
_symmetry_cell_setting            monoclinic
loop_
_symmetry_equiv_pos_as_xyz
  x,y,z
  -x,y,-z
_cell_length_a                    37.4503
_cell_length_b                    41.2409
_cell_length_c                    28.6011
_cell_angle_alpha                 90.0000
_cell_angle_beta                  89.9938
_cell_angle_gamma                 90.0000
loop_
_atom_site_label
_atom_site_type_symbol
_atom_site_fract_x
_atom_site_fract_y
_atom_site_fract_z
_atom_site_U_iso_or_equiv
_atom_site_adp_type
_atom_site_occupancy
C1     C    -0.15068   0.02618   1.21895   0.00000  Uiso   1.00
C2     C    -0.18309   0.01308   1.23465   0.00000  Uiso   1.00
C3     C    -0.18309   0.98711   0.26515   0.00000  Uiso   1.00
C4     C    -0.15067   0.97406   0.28092   0.00000  Uiso   1.00
C5     C    -0.11887   0.98722   0.26582   0.00000  Uiso   1.00
C6     C    -0.11888   0.01304   1.23408   0.00000  Uiso   1.00
O1     O    -0.14806   0.05209   1.18847   0.00000  Uiso   1.00
O2     O    -0.21615   0.02447   1.22103   0.00000  Uiso   1.00
O3     O    -0.21615   0.97564   0.27864   0.00000  Uiso   1.00
O4     O    -0.14803   0.94811   0.31132   0.00000  Uiso   1.00
O5     O    -0.08818   0.97366   0.28384   0.00000  Uiso   1.00
O6     O    -0.08820   0.02661   1.21605   0.00000  Uiso   1.00
C13    C     0.65069   0.97399   0.28077   0.00000  Uiso   1.00
C14    C     0.68312   0.98700   0.26497   0.00000  Uiso   1.00
C15    C     0.68313   0.01298   1.23445   0.00000  Uiso   1.00
C16    C     0.65071   0.02609   1.21878   0.00000  Uiso   1.00
C17    C     0.61890   0.01298   1.23396   0.00000  Uiso   1.00
C18    C     0.61890   0.98718   0.26575   0.00000  Uiso   1.00
O13    O     0.64805   0.94807   0.31126   0.00000  Uiso   1.00
O14    O     0.71618   0.97553   0.27844   0.00000  Uiso   1.00
O15    O     0.71619   0.02437   1.22084   0.00000  Uiso   1.00
O16    O     0.64809   0.05204   1.18835   0.00000  Uiso   1.00
O17    O     0.58822   0.02658   1.21598   0.00000  Uiso   1.00
O18    O     0.58821   0.97364   0.28381   0.00000  Uiso   1.00
C25    C     0.34933   0.52584   0.71854   0.00000  Uiso   1.00
C26    C     0.31691   0.51269   0.73412   0.00000  Uiso   1.00
C27    C     0.31689   0.48669   0.76459   0.00000  Uiso   1.00
C28    C     0.34932   0.47370   0.78046   0.00000  Uiso   1.00
C29    C     0.38112   0.48691   0.76546   0.00000  Uiso   1.00
C30    C     0.38113   0.51273   0.73371   0.00000  Uiso   1.00
O25    O     0.35196   0.55181   0.68815   0.00000  Uiso   1.00
O26    O     0.28385   0.52404   0.72043   0.00000  Uiso   1.00
O27    O     0.28384   0.47515   0.77793   0.00000  Uiso   1.00
O28    O     0.35196   0.44778   0.81093   0.00000  Uiso   1.00
O29    O     0.41181   0.47339   0.78354   0.00000  Uiso   1.00
O30    O     0.41182   0.52633   0.71575   0.00000  Uiso   1.00
C37    C     0.15070   0.47353   0.78013   0.00000  Uiso   1.00
C38    C     0.18313   0.48656   0.76436   0.00000  Uiso   1.00
C39    C     0.18315   0.51257   0.73391   0.00000  Uiso   1.00
C40    C     0.15073   0.52567   0.71821   0.00000  Uiso   1.00
C41    C     0.11893   0.51254   0.73336   0.00000  Uiso   1.00
C42    C     0.11891   0.48672   0.76510   0.00000  Uiso   1.00
O37    O     0.14806   0.44765   0.81066   0.00000  Uiso   1.00
O38    O     0.21618   0.47510   0.77786   0.00000  Uiso   1.00
O39    O     0.21621   0.52401   0.72036   0.00000  Uiso   1.00
O40    O     0.14812   0.55164   0.68782   0.00000  Uiso   1.00
O41    O     0.08825   0.52615   0.71541   0.00000  Uiso   1.00
O42    O     0.08821   0.47323   0.78321   0.00000  Uiso   1.00
C49    C    -0.05058   0.13343   1.05687   0.00000  Uiso   1.00
C50    C    -0.01910   0.11733   1.06921   0.00000  Uiso   1.00
C51    C    -0.01927   0.09391   1.10460   0.00000  Uiso   1.00
C52    C    -0.05161   0.08614   1.12616   0.00000  Uiso   1.00
C53    C    -0.08298   0.10083   1.11263   0.00000  Uiso   1.00
C54    C    -0.08299   0.12508   1.07833   0.00000  Uiso   1.00
O49    O    -0.04869   0.15732   1.02274   0.00000  Uiso   1.00
O50    O     0.01196   0.12499   1.04532   0.00000  Uiso   1.00
H1     H     0.00515   0.08172   1.11472   0.00000  Uiso   1.00
O51    O    -0.05427   0.06340   1.16133   0.00000  Uiso   1.00
O52    O    -0.11364   0.08998   1.13457   0.00000  Uiso   1.00
H2     H    -0.10762   0.13693   1.06829   0.00000  Uiso   1.00
Fe9    Cu   -0.10107   0.05811   1.17522   0.00000  Uiso   1.00
C55    C    -0.01908   0.88305   0.43081   0.00000  Uiso   1.00
C56    C    -0.05056   0.86695   0.44314   0.00000  Uiso   1.00
C57    C    -0.08297   0.87528   0.42169   0.00000  Uiso   1.00
C58    C    -0.08295   0.89950   0.38734   0.00000  Uiso   1.00
C59    C    -0.05158   0.91420   0.37382   0.00000  Uiso   1.00
C60    C    -0.01924   0.90646   0.39542   0.00000  Uiso   1.00
O53    O     0.01197   0.87540   0.45470   0.00000  Uiso   1.00
O54    O    -0.04868   0.84306   0.47728   0.00000  Uiso   1.00
H3     H    -0.10758   0.86341   0.43175   0.00000  Uiso   1.00
O55    O    -0.11360   0.91030   0.36535   0.00000  Uiso   1.00
O56    O    -0.05425   0.93696   0.33866   0.00000  Uiso   1.00
H4     H     0.00518   0.91864   0.38528   0.00000  Uiso   1.00
Fe10   Cu   -0.10104   0.94217   0.32468   0.00000  Uiso   1.00
C73    C     0.55058   0.86693   0.44315   0.00000  Uiso   1.00
C74    C     0.51909   0.88301   0.43079   0.00000  Uiso   1.00
C75    C     0.51926   0.90645   0.39542   0.00000  Uiso   1.00
C76    C     0.55160   0.91418   0.37381   0.00000  Uiso   1.00
C77    C     0.58297   0.89951   0.38736   0.00000  Uiso   1.00
C78    C     0.58299   0.87530   0.42171   0.00000  Uiso   1.00
O65    O     0.54869   0.84304   0.47729   0.00000  Uiso   1.00
O66    O     0.48804   0.87536   0.45468   0.00000  Uiso   1.00
H9     H     0.49483   0.91860   0.38527   0.00000  Uiso   1.00
O67    O     0.55427   0.93697   0.33869   0.00000  Uiso   1.00
O68    O     0.61362   0.91033   0.36538   0.00000  Uiso   1.00
H10    H     0.60760   0.86346   0.43181   0.00000  Uiso   1.00
Fe13   Cu    0.60107   0.94216   0.32468   0.00000  Uiso   1.00
C79    C     0.55060   0.13341   1.05682   0.00000  Uiso   1.00
C80    C     0.51912   0.11734   1.06921   0.00000  Uiso   1.00
C81    C     0.51928   0.09394   1.10461   0.00000  Uiso   1.00
C82    C     0.55163   0.08616   1.12614   0.00000  Uiso   1.00
C83    C     0.58301   0.10081   1.11254   0.00000  Uiso   1.00
C84    C     0.58302   0.12506   1.07824   0.00000  Uiso   1.00
O69    O     0.54870   0.15730   1.02268   0.00000  Uiso   1.00
O70    O     0.48806   0.12499   1.04535   0.00000  Uiso   1.00
H11    H     0.49485   0.08181   1.11482   0.00000  Uiso   1.00
O71    O     0.55430   0.06339   1.16128   0.00000  Uiso   1.00
O72    O     0.61367   0.08996   1.13445   0.00000  Uiso   1.00
H12    H     0.60764   0.13690   1.06812   0.00000  Uiso   1.00
Fe14   Cu    0.60110   0.05809   1.17513   0.00000  Uiso   1.00
C97    C     0.44945   0.63334   0.55687   0.00000  Uiso   1.00
C98    C     0.48094   0.61725   0.56921   0.00000  Uiso   1.00
C99    C     0.48078   0.59380   0.60455   0.00000  Uiso   1.00
C100   C     0.44843   0.58603   0.62612   0.00000  Uiso   1.00
C101   C     0.41706   0.60071   0.61258   0.00000  Uiso   1.00
C102   C     0.41704   0.62500   0.57833   0.00000  Uiso   1.00
O81    O     0.45133   0.65725   0.52278   0.00000  Uiso   1.00
O82    O     0.51198   0.62493   0.54531   0.00000  Uiso   1.00
H17    H     0.50519   0.58163   0.61466   0.00000  Uiso   1.00
O83    O     0.44576   0.56323   0.66120   0.00000  Uiso   1.00
O84    O     0.38640   0.58983   0.63447   0.00000  Uiso   1.00
H18    H     0.39241   0.63686   0.56829   0.00000  Uiso   1.00
Fe17   Cu    0.39895   0.55789   0.67501   0.00000  Uiso   1.00
C103   C     0.44941   0.36695   0.94318   0.00000  Uiso   1.00
C104   C     0.48088   0.38305   0.93079   0.00000  Uiso   1.00
C105   C     0.48071   0.40645   0.89538   0.00000  Uiso   1.00
C106   C     0.44838   0.41413   0.87375   0.00000  Uiso   1.00
C107   C     0.41702   0.39940   0.88726   0.00000  Uiso   1.00
C108   C     0.41701   0.37522   0.92166   0.00000  Uiso   1.00
O85    O     0.45130   0.34308   0.97734   0.00000  Uiso   1.00
O86    O     0.51194   0.37542   0.95468   0.00000  Uiso   1.00
H19    H     0.50512   0.41862   0.88524   0.00000  Uiso   1.00
O87    O     0.44571   0.43686   0.83858   0.00000  Uiso   1.00
O88    O     0.38637   0.41014   0.86520   0.00000  Uiso   1.00
H20    H     0.39239   0.36334   0.93172   0.00000  Uiso   1.00
Fe18   Cu    0.39893   0.44195   0.82446   0.00000  Uiso   1.00
C121   C     0.05058   0.36695   0.94312   0.00000  Uiso   1.00
C122   C     0.01910   0.38303   0.93073   0.00000  Uiso   1.00
C123   C     0.01926   0.40639   0.89525   0.00000  Uiso   1.00
C124   C     0.05161   0.41405   0.87357   0.00000  Uiso   1.00
C125   C     0.08297   0.39935   0.88713   0.00000  Uiso   1.00
C126   C     0.08298   0.37521   0.92158   0.00000  Uiso   1.00
O97    O     0.04869   0.34310   0.97732   0.00000  Uiso   1.00
O98    O    -0.01195   0.37544   0.95469   0.00000  Uiso   1.00
H25    H    -0.00515   0.41855   0.88508   0.00000  Uiso   1.00
O99    O     0.05429   0.43672   0.83829   0.00000  Uiso   1.00
O100   O     0.11362   0.41004   0.86498   0.00000  Uiso   1.00
H26    H     0.10759   0.36335   0.93169   0.00000  Uiso   1.00
Fe21   Cu    0.10108   0.44181   0.82417   0.00000  Uiso   1.00
C127   C     0.01910   0.61722   0.56908   0.00000  Uiso   1.00
C128   C     0.05060   0.63329   0.55670   0.00000  Uiso   1.00
C129   C     0.08304   0.62483   0.57798   0.00000  Uiso   1.00
C130   C     0.08303   0.60052   0.61219   0.00000  Uiso   1.00
C131   C     0.05165   0.58586   0.62578   0.00000  Uiso   1.00
C132   C     0.01929   0.59370   0.60432   0.00000  Uiso   1.00
O101   O    -0.01197   0.62497   0.54532   0.00000  Uiso   1.00
O102   O     0.04870   0.65727   0.52269   0.00000  Uiso   1.00
H27    H     0.10767   0.63665   0.56786   0.00000  Uiso   1.00
O103   O     0.11369   0.58958   0.63400   0.00000  Uiso   1.00
O104   O     0.05432   0.56300   0.66079   0.00000  Uiso   1.00
H28    H    -0.00512   0.58154   0.61449   0.00000  Uiso   1.00
Fe22   Cu    0.10113   0.55768   0.67461   0.00000  Uiso   1.00
Fe25   Cu   -0.24998  -0.00001   0.24973   0.00000  Uiso   1.00
C145   C    -0.01253   0.75017   0.54634   0.00000  Uiso   1.00
C146   C    -0.00622   0.77943   0.52300   0.00000  Uiso   1.00
C149   C     0.00622   0.72089   0.47699   0.00000  Uiso   1.00
H33    H    -0.02220   0.75019   0.58200   0.00000  Uiso   1.00
O113   O    -0.01208   0.80906   0.54465   0.00000  Uiso   1.00
O115   O     0.01208   0.69126   0.45534   0.00000  Uiso   1.00
C151   C     0.01249   0.25022   1.04635   0.00000  Uiso   1.00
C152   C     0.00621   0.22095   1.02301   0.00000  Uiso   1.00
C155   C    -0.00621   0.27949   0.97700   0.00000  Uiso   1.00
H35    H     0.02213   0.25021   1.08200   0.00000  Uiso   1.00
O117   O     0.01208   0.19132   1.04467   0.00000  Uiso   1.00
O119   O    -0.01205   0.30912   0.95534   0.00000  Uiso   1.00
C157   C     0.51249   0.25020   0.95364   0.00000  Uiso   1.00
C158   C     0.50620   0.22093   0.97698   0.00000  Uiso   1.00
C161   C     0.49380   0.27947   1.02301   0.00000  Uiso   1.00
H37    H     0.52212   0.25022   0.91797   0.00000  Uiso   1.00
O121   O     0.51207   0.19131   0.95533   0.00000  Uiso   1.00
O123   O     0.48794   0.30910   1.04467   0.00000  Uiso   1.00
C163   C     0.51254   0.75014   0.54633   0.00000  Uiso   1.00
C164   C     0.50623   0.72087   0.52300   0.00000  Uiso   1.00
C167   C     0.49378   0.77941   0.47700   0.00000  Uiso   1.00
H39    H     0.52221   0.75014   0.58197   0.00000  Uiso   1.00
O125   O     0.51211   0.69124   0.54465   0.00000  Uiso   1.00
O127   O     0.48792   0.80904   0.45535   0.00000  Uiso   1.00
Fe27   Cu    0.25002   0.49957   0.74914   0.00000  Uiso   1.00
Fe1    Fe    0.00000   0.84247   0.50000   0.00000  Uiso   1.00
Fe7    Fe    0.00000   0.65787   0.50000   0.00000  Uiso   1.00
Fe2    Fe    0.00000   0.15792   1.00000   0.00000  Uiso   1.00
Fe8    Fe    0.00000   0.34252   1.00000   0.00000  Uiso   1.00
Fe3    Fe    0.50000   0.15791   1.00000   0.00000  Uiso   1.00
Fe5    Fe    0.50000   0.34250   1.00000   0.00000  Uiso   1.00
Fe4    Fe    0.50000   0.84244   0.50000   0.00000  Uiso   1.00
Fe6    Fe    0.50000   0.65785   0.50000   0.00000  Uiso   1.00
loop_
_geom_bond_atom_site_label_1
_geom_bond_atom_site_label_2
_geom_bond_distance
_geom_bond_site_symmetry_2
_ccdc_geom_bond_type
C1     C2      1.402   .     A
C1     C6      1.378   .     A
C1     O1      1.383   .     S
C2     C3      1.382   1_546 A
C2     O2      1.380   .     S
C3     C2      1.382   1_564 A
C3     C4      1.403   .     A
C3     O3      1.380   .     S
C4     C5      1.378   .     A
C4     O4      1.383   .     S
C5     C6      1.399   1_564 A
C5     O5      1.378   .     S
C6     C5      1.399   1_546 A
C6     O6      1.378   .     S
O1     Fe9     1.817   .     S
O2     Fe25    1.816   1_556 S
O3     Fe25    1.816   1_565 S
O4     Fe10    1.817   .     S
O5     Fe10    1.812   .     S
O6     Fe9     1.812   .     S
C13    C14     1.402   .     A
C13    C18     1.378   .     A
C13    O13     1.383   .     S
C14    C15     1.382   1_564 A
C14    O14     1.380   .     S
C15    C14     1.382   1_546 A
C15    C16     1.403   .     A
C15    O15     1.380   .     S
C16    C17     1.378   .     A
C16    O16     1.383   .     S
C17    C18     1.400   1_546 A
C17    O17     1.378   .     S
C18    C17     1.400   1_564 A
C18    O18     1.378   .     S
O13    Fe13    1.817   .     S
O14    Fe25    1.816   1_665 S
O15    Fe25    1.816   1_656 S
O16    Fe14    1.817   .     S
O17    Fe14    1.813   .     S
O18    Fe13    1.812   .     S
C25    C26     1.402   .     A
C25    C30     1.378   .     A
C25    O25     1.383   .     S
C26    C27     1.382   .     A
C26    O26     1.380   .     S
C27    C28     1.403   .     A
C27    O27     1.380   .     S
C28    C29     1.378   .     A
C28    O28     1.383   .     S
C29    C30     1.400   .     A
C29    O29     1.378   .     S
C30    O30     1.378   .     S
O25    Fe17    1.817   .     S
O26    Fe27    1.816   .     S
O27    Fe27    1.816   .     S
O28    Fe18    1.817   .     S
O29    Fe18    1.812   .     S
O30    Fe17    1.812   .     S
C37    C38     1.402   .     A
C37    C42     1.378   .     A
C37    O37     1.383   .     S
C38    C39     1.382   .     A
C38    O38     1.380   .     S
C39    C40     1.403   .     A
C39    O39     1.380   .     S
C40    C41     1.378   .     A
C40    O40     1.383   .     S
C41    C42     1.399   .     A
C41    O41     1.378   .     S
C42    O42     1.378   .     S
O37    Fe21    1.817   .     S
O38    Fe27    1.816   .     S
O39    Fe27    1.816   .     S
O40    Fe22    1.817   .     S
O41    Fe22    1.812   .     S
O42    Fe21    1.812   .     S
C49    C50     1.399   .     A
C49    C54     1.403   .     A
C49    O49     1.389   .     S
C50    C51     1.399   .     A
C50    O50     1.385   .     S
C51    C52     1.397   .     A
C51    H1      1.083   .     S
C52    C53     1.377   .     A
C52    O51     1.379   .     S
C53    C54     1.401   .     A
C53    O52     1.383   .     S
C54    H2      1.082   .     S
O49    Fe2     1.936   .     S
O50    Fe2     1.930   .     S
O51    Fe9     1.810   .     S
O52    Fe9     1.817   .     S
C55    C56     1.398   .     A
C55    C60     1.399   .     A
C55    O53     1.385   .     S
C56    C57     1.403   .     A
C56    O54     1.389   .     S
C57    C58     1.401   .     A
C57    H3      1.083   .     S
C58    C59     1.377   .     A
C58    O55     1.383   .     S
C59    C60     1.397   .     A
C59    O56     1.379   .     S
C60    H4      1.083   .     S
O53    Fe1     1.930   .     S
O54    Fe1     1.936   .     S
O55    Fe10    1.817   .     S
O56    Fe10    1.810   .     S
C73    C74     1.398   .     A
C73    C78     1.403   .     A
C73    O65     1.389   .     S
C74    C75     1.399   .     A
C74    O66     1.385   .     S
C75    C76     1.397   .     A
C75    H9      1.083   .     S
C76    C77     1.377   .     A
C76    O67     1.379   .     S
C77    C78     1.401   .     A
C77    O68     1.383   .     S
C78    H10     1.082   .     S
O65    Fe4     1.936   .     S
O66    Fe4     1.930   .     S
O67    Fe13    1.811   .     S
O68    Fe13    1.817   .     S
C79    C80     1.398   .     A
C79    C84     1.403   .     A
C79    O69     1.389   .     S
C80    C81     1.399   .     A
C80    O70     1.385   .     S
C81    C82     1.396   .     A
C81    H11     1.083   .     S
C82    C83     1.377   .     A
C82    O71     1.379   .     S
C83    C84     1.401   .     A
C83    O72     1.382   .     S
C84    H12     1.083   .     S
O69    Fe3     1.936   .     S
O70    Fe3     1.930   .     S
O71    Fe14    1.810   .     S
O72    Fe14    1.817   .     S
C97    C98     1.398   .     A
C97    C102    1.403   .     A
C97    O81     1.389   .     S
C98    C99     1.399   .     A
C98    O82     1.385   .     S
C99    C100    1.397   .     A
C99    H17     1.083   .     S
C100   C101    1.377   .     A
C100   O83     1.379   .     S
C101   C102    1.401   .     A
C101   O84     1.383   .     S
C102   H18     1.083   .     S
O81    Fe6     1.936   .     S
O82    Fe6     1.930   .     S
O83    Fe17    1.810   .     S
O84    Fe17    1.817   .     S
C103   C104    1.398   .     A
C103   C108    1.403   .     A
C103   O85     1.389   .     S
C104   C105    1.399   .     A
C104   O86     1.385   .     S
C105   C106    1.396   .     A
C105   H19     1.083   .     S
C106   C107    1.378   .     A
C106   O87     1.379   .     S
C107   C108    1.401   .     A
C107   O88     1.383   .     S
C108   H20     1.083   .     S
O85    Fe5     1.936   .     S
O86    Fe5     1.930   .     S
O87    Fe18    1.810   .     S
O88    Fe18    1.817   .     S
C121   C122    1.398   .     A
C121   C126    1.403   .     A
C121   O97     1.389   .     S
C122   C123    1.399   .     A
C122   O98     1.386   .     S
C123   C124    1.397   .     A
C123   H25     1.083   .     S
C124   C125    1.377   .     A
C124   O99     1.379   .     S
C125   C126    1.401   .     A
C125   O100    1.383   .     S
C126   H26     1.083   .     S
O97    Fe8     1.936   .     S
O98    Fe8     1.930   .     S
O99    Fe21    1.810   .     S
O100   Fe21    1.817   .     S
C127   C128    1.399   .     A
C127   C132    1.399   .     A
C127   O101    1.385   .     S
C128   C129    1.403   .     A
C128   O102    1.389   .     S
C129   C130    1.401   .     A
C129   H27     1.083   .     S
C130   C131    1.377   .     A
C130   O103    1.383   .     S
C131   C132    1.396   .     A
C131   O104    1.379   .     S
C132   H28     1.082   .     S
O101   Fe7     1.929   .     S
O102   Fe7     1.936   .     S
O103   Fe22    1.817   .     S
O104   Fe22    1.810   .     S
Fe25   O3      1.816   1_545 S
Fe25   O14     1.816   1_445 S
Fe25   O2      1.816   1_554 S
Fe25   O15     1.816   1_454 S
C145   C146    1.399   .     A
C145   C149    1.400   2_556 A
C145   H33     1.082   .     S
C146   C146    1.396   2_556 A
C146   O113    1.387   .     S
C149   C145    1.400   2_556 A
C149   C149    1.396   2_556 A
C149   O115    1.387   .     S
O113   Fe1     1.932   .     S
O115   Fe7     1.932   .     S
C151   C152    1.399   .     A
C151   C155    1.399   2_557 A
C151   H35     1.082   .     S
C152   C152    1.396   2_557 A
C152   O117    1.387   .     S
C155   C151    1.399   2_557 A
C155   C155    1.396   2_557 A
C155   O119    1.387   .     S
O117   Fe2     1.933   .     S
O119   Fe8     1.932   .     S
C157   C158    1.399   .     A
C157   C161    1.399   2_657 A
C157   H37     1.082   .     S
C158   C158    1.396   2_657 A
C158   O121    1.387   .     S
C161   C157    1.399   2_657 A
C161   C161    1.396   2_657 A
C161   O123    1.387   .     S
O121   Fe3     1.932   .     S
O123   Fe5     1.932   .     S
C163   C164    1.399   .     A
C163   C167    1.399   2_656 A
C163   H39     1.082   .     S
C164   C164    1.396   2_656 A
C164   O125    1.388   .     S
C167   C163    1.399   2_656 A
C167   C167    1.396   2_656 A
C167   O127    1.387   .     S
O125   Fe6     1.932   .     S
O127   Fe4     1.932   .     S
Fe1    O53     1.930   2_556 S
Fe1    O54     1.936   2_556 S
Fe1    O113    1.932   2_556 S
Fe7    O101    1.929   2_556 S
Fe7    O102    1.936   2_556 S
Fe7    O115    1.932   2_556 S
Fe2    O49     1.936   2_557 S
Fe2    O50     1.930   2_557 S
Fe2    O117    1.933   2_557 S
Fe8    O97     1.936   2_557 S
Fe8    O98     1.930   2_557 S
Fe8    O119    1.932   2_557 S
Fe3    O69     1.936   2_657 S
Fe3    O70     1.930   2_657 S
Fe3    O121    1.932   2_657 S
Fe5    O85     1.936   2_657 S
Fe5    O86     1.930   2_657 S
Fe5    O123    1.932   2_657 S
Fe4    O65     1.936   2_656 S
Fe4    O66     1.930   2_656 S
Fe4    O127    1.932   2_656 S
Fe6    O81     1.936   2_656 S
Fe6    O82     1.930   2_656 S
Fe6    O125    1.932   2_656 S
