data_lig-TP_O-Feoct
_audit_creation_date              2021-11-06
_audit_creation_method            'Materials Studio'
_symmetry_space_group_name_H-M    'PMNA'
_symmetry_Int_Tables_number       53
_symmetry_cell_setting            orthorhombic
loop_
_symmetry_equiv_pos_as_xyz
  x,y,z
  -x+1/2,-y,z+1/2
  -x+1/2,y,-z+1/2
  x,-y,-z
  -x,-y,-z
  x+1/2,y,-z+1/2
  x+1/2,-y,z+1/2
  -x,y,z
_cell_length_a                    29.0591
_cell_length_b                    37.3810
_cell_length_c                    16.6874
_cell_angle_alpha                 90.0000
_cell_angle_beta                  90.0000
_cell_angle_gamma                 90.0000
loop_
_atom_site_label
_atom_site_type_symbol
_atom_site_fract_x
_atom_site_fract_y
_atom_site_fract_z
_atom_site_U_iso_or_equiv
_atom_site_adp_type
_atom_site_occupancy
C1     C     0.23404  -0.05166   1.21782   0.00000  Uiso   1.00
C2     C     0.21476  -0.08450   1.19020   0.00000  Uiso   1.00
C3     C     0.23198  -0.11757   1.22058   0.00000  Uiso   1.00
C7     C    -0.71534  -0.15107   0.30779   0.00000  Uiso   1.00
C8     C    -0.73311  -0.18294   0.27825   0.00000  Uiso   1.00
C11    C     0.22180  -0.01947   1.17812   0.00000  Uiso   1.00
C12    C     0.18873  -0.01931   1.11814   0.00000  Uiso   1.00
C13    C     0.16618  -0.05047   1.09736   0.00000  Uiso   1.00
C14    C     0.17891  -0.08288   1.13209   0.00000  Uiso   1.00
H1     H    -0.68920  -0.15370   0.35303   0.00000  Uiso   1.00
O1     O    -0.71800  -0.21609   0.30380   0.00000  Uiso   1.00
H3     H     0.23864   0.00568   1.19020   0.00000  Uiso   1.00
O3     O     0.17770   0.01191   1.07755   0.00000  Uiso   1.00
O4     O     0.13192  -0.04863   1.03936   0.00000  Uiso   1.00
H4     H     0.16027  -0.10601   1.11169   0.00000  Uiso   1.00
C37    C    -0.73404   0.55165   0.28218   0.00000  Uiso   1.00
C38    C    -0.71476   0.58449   0.30979   0.00000  Uiso   1.00
C39    C    -0.73198   0.61756   0.27941   0.00000  Uiso   1.00
C43    C     0.21533   0.65106   1.19223   0.00000  Uiso   1.00
C44    C     0.23311   0.68293   1.22176   0.00000  Uiso   1.00
C47    C    -0.72180   0.51947   0.32187   0.00000  Uiso   1.00
C48    C    -0.68873   0.51930   0.38186   0.00000  Uiso   1.00
C49    C    -0.66618   0.55047   0.40263   0.00000  Uiso   1.00
C50    C    -0.67891   0.58287   0.36790   0.00000  Uiso   1.00
H13    H     0.18918   0.65369   1.14701   0.00000  Uiso   1.00
O13    O     0.21799   0.71608   1.19622   0.00000  Uiso   1.00
H15    H    -0.73864   0.49432   0.30980   0.00000  Uiso   1.00
O15    O    -0.67770   0.48809   0.42245   0.00000  Uiso   1.00
O16    O    -0.63191   0.54863   0.46063   0.00000  Uiso   1.00
H16    H    -0.66026   0.60600   0.38830   0.00000  Uiso   1.00
C146   C    -0.54154  -0.00627   0.53940   0.00000  Uiso   1.00
O49    O    -0.58360  -0.01218   0.57649   0.00000  Uiso   1.00
C158   C     0.04154   0.49373   1.03940   0.00000  Uiso   1.00
O57    O     0.08360   0.48782   1.07649   0.00000  Uiso   1.00
Fe1    Fe   -0.63099   0.00000   0.50000   0.00000  Uiso   1.00
Fe3    Fe    0.13099   0.50000   1.00000   0.00000  Uiso   1.00
Fe9    Cu    0.25000   0.75000   0.25000   0.00000  Uiso   1.00
C145   C    -0.50000  -0.01262   0.57934   0.00000  Uiso   1.00
H49    H    -0.50000  -0.02233   0.64045   0.00000  Uiso   1.00
C157   C    -0.00000   0.48738   1.07934   0.00000  Uiso   1.00
H53    H    -0.00000   0.47766   1.14045   0.00000  Uiso   1.00
loop_
_geom_bond_atom_site_label_1
_geom_bond_atom_site_label_2
_geom_bond_distance
_geom_bond_site_symmetry_2
_ccdc_geom_bond_type
C1     C2      1.426   .     A
C1     C1      1.419   3_557 A
C1     C11     1.419   .     A
C2     C3      1.427   .     A
C2     C14     1.424   .     A
C3     C3      1.435   3_557 A
C3     C7      1.423   3_456 A
C7     C3      1.423   3_456 A
C7     C8      1.389   .     A
C7     H1      1.075   .     S
C8     C8      1.361   3_355 A
C8     O1      1.382   .     S
C11    C12     1.388   .     A
C11    H3      1.079   .     S
C12    C13     1.381   .     A
C12    O3      1.387   .     S
C13    C14     1.393   .     A
C13    O4      1.390   .     S
C14    H4      1.076   .     S
O1     Fe9     1.811   1_445 S
O3     Fe1     1.928   2_455 S
O4     Fe1     1.933   2_455 S
C37    C38     1.426   .     A
C37    C37     1.419   3_355 A
C37    C47     1.419   .     A
C38    C39     1.427   .     A
C38    C50     1.424   .     A
C39    C39     1.435   3_355 A
C39    C43     1.423   3_456 A
C43    C39     1.423   3_456 A
C43    C44     1.389   .     A
C43    H13     1.075   .     S
C44    C44     1.361   3_557 A
C44    O13     1.382   .     S
C47    C48     1.388   .     A
C47    H15     1.079   .     S
C48    C49     1.381   .     A
C48    O15     1.387   .     S
C49    C50     1.393   .     A
C49    O16     1.390   .     S
C50    H16     1.076   .     S
O13    Fe9     1.811   1_556 S
O15    Fe3     1.928   2_464 S
O16    Fe3     1.933   2_464 S
C146   C145    1.399   .     A
C146   C146    1.396   4_556 A
C146   O49     1.388   .     S
O49    Fe1     1.932   .     S
C158   C157    1.399   .     A
C158   C158    1.396   4_567 A
C158   O57     1.388   .     S
O57    Fe3     1.932   .     S
Fe1    O4      1.933   3_456 S
Fe1    O4      1.933   2_454 S
Fe1    O3      1.928   3_456 S
Fe1    O3      1.928   2_454 S
Fe1    O49     1.932   4_556 S
Fe3    O16     1.933   3_456 S
Fe3    O16     1.933   2_465 S
Fe3    O15     1.928   3_456 S
Fe3    O15     1.928   2_465 S
Fe3    O57     1.932   4_567 S
Fe9    O13     1.811   3_556 S
Fe9    O13     1.811   1_554 S
Fe9    O1      1.811   1_665 S
Fe9    O1      1.811   3_465 S
C145   C146    1.399   8_455 A
C145   H49     1.083   .     S
C157   C158    1.399   8     A
C157   H53     1.083   .     S
