data_lig-B_O-Feoct
_audit_creation_date              2021-11-06
_audit_creation_method            'Materials Studio'
_symmetry_space_group_name_H-M    'IMMA'
_symmetry_Int_Tables_number       74
_symmetry_cell_setting            orthorhombic
loop_
_symmetry_equiv_pos_as_xyz
  x,y,z
  -x,-y+1/2,z
  -x,y+1/2,-z
  x,-y,-z
  -x,-y,-z
  x,y+1/2,-z
  x,-y+1/2,z
  -x,y,z
  x+1/2,y+1/2,z+1/2
  -x+1/2,-y,z+1/2
  -x+1/2,y,-z+1/2
  x+1/2,-y+1/2,-z+1/2
  -x+1/2,-y+1/2,-z+1/2
  x+1/2,y,-z+1/2
  x+1/2,-y,z+1/2
  -x+1/2,y+1/2,z+1/2
_cell_length_a                    22.4472
_cell_length_b                    24.5228
_cell_length_c                    9.2350
_cell_angle_alpha                 90.0000
_cell_angle_beta                  90.0000
_cell_angle_gamma                 90.0000
loop_
_atom_site_label
_atom_site_type_symbol
_atom_site_fract_x
_atom_site_fract_y
_atom_site_fract_z
_atom_site_U_iso_or_equiv
_atom_site_adp_type
_atom_site_occupancy
C1     C     0.16552   0.54636   0.91063   0.00000  Uiso   1.00
C2     C     0.11163   0.52331   0.95767   0.00000  Uiso   1.00
C5     C     0.21882   1.47826   0.04850   0.00000  Uiso   1.00
O1     O     0.16868   0.59235   0.82204   0.00000  Uiso   1.00
O2     O     0.05640   0.54364   0.92017   0.00000  Uiso   1.00
O5     O     0.27117   1.45981   0.10974   0.00000  Uiso   1.00
C50    C     0.23933   1.29923   0.32100   0.00000  Uiso   1.00
O49    O     0.22926   1.34906   0.38783   0.00000  Uiso   1.00
Fe1    Fe    0.25000   1.40517   0.25000   0.00000  Uiso   1.00
Fe9    Cu    0.00000   0.50000   0.00000   0.00000  Uiso   1.00
C49    C     0.22852   1.25000   0.39297   0.00000  Uiso   1.00
H1     H     0.21198   1.25000   0.50308   0.00000  Uiso   1.00
loop_
_geom_bond_atom_site_label_1
_geom_bond_atom_site_label_2
_geom_bond_distance
_geom_bond_site_symmetry_2
_ccdc_geom_bond_type
C1     C2      1.404   .     A
C1     C5      1.392   4_576 A
C1     O1      1.395   .     S
C2     C2      1.385   4_567 A
C2     O2      1.380   .     S
C5     C1      1.392   4_576 A
C5     C5      1.393   4_585 A
C5     O5      1.380   .     S
O1     Fe1     1.944   4_576 S
O2     Fe9     1.814   1_556 S
O5     Fe1     1.923   .     S
C50    C49     1.399   .     A
C50    C50     1.396   11    A
C50    O49     1.387   .     S
O49    Fe1     1.931   .     S
Fe1    O1      1.944   4_576 S
Fe1    O1      1.944   10_574 S
Fe1    O5      1.923   11    S
Fe1    O49     1.931   11    S
Fe9    O2      1.814   4_566 S
Fe9    O2      1.814   1_554 S
Fe9    O2      1.814   8_554 S
Fe9    O2      1.814   5_566 S
C49    C50     1.399   7_575 A
C49    H1      1.083   .     S
