data_lig-TN_O-Feoct
_audit_creation_date              2021-11-06
_audit_creation_method            'Materials Studio'
_symmetry_space_group_name_H-M    'PMNA'
_symmetry_Int_Tables_number       53
_symmetry_cell_setting            orthorhombic
loop_
_symmetry_equiv_pos_as_xyz
  x,y,z
  -x+1/2,-y,z+1/2
  -x+1/2,y,-z+1/2
  x,-y,-z
  -x,-y,-z
  x+1/2,y,-z+1/2
  x+1/2,-y,z+1/2
  -x,y,z
_cell_length_a                    33.9071
_cell_length_b                    52.0386
_cell_length_c                    23.6138
_cell_angle_alpha                 90.0000
_cell_angle_beta                  90.0000
_cell_angle_gamma                 90.0000
loop_
_atom_site_label
_atom_site_type_symbol
_atom_site_fract_x
_atom_site_fract_y
_atom_site_fract_z
_atom_site_U_iso_or_equiv
_atom_site_adp_type
_atom_site_occupancy
C1     C     0.23698   0.43933   1.22640   0.00000  Uiso   1.00
C2     C     0.22142   0.41574   1.20566   0.00000  Uiso   1.00
C3     C     0.23599   0.39197   1.22741   0.00000  Uiso   1.00
C7     C    -0.72432   0.36802   0.29611   0.00000  Uiso   1.00
C8     C    -0.73725   0.34470   0.27353   0.00000  Uiso   1.00
C11    C     0.22704   0.46244   1.19794   0.00000  Uiso   1.00
C12    C     0.19923   0.46285   1.15440   0.00000  Uiso   1.00
C13    C     0.18010   0.43996   1.13859   0.00000  Uiso   1.00
C14    C     0.19116   0.41679   1.16403   0.00000  Uiso   1.00
C19    C    -0.65070   0.44056   0.40351   0.00000  Uiso   1.00
C20    C    -0.64153   0.46372   0.43041   0.00000  Uiso   1.00
C21    C    -0.66151   0.48616   0.41606   0.00000  Uiso   1.00
C22    C    -0.69003   0.48596   0.37347   0.00000  Uiso   1.00
C23    C     0.22479   0.32119   1.20292   0.00000  Uiso   1.00
C24    C     0.23769   0.29817   1.22694   0.00000  Uiso   1.00
H1     H    -0.70582   0.36677   0.33308   0.00000  Uiso   1.00
H3     H     0.24161   0.48035   1.20756   0.00000  Uiso   1.00
H4     H     0.17514   0.39994   1.15088   0.00000  Uiso   1.00
H7     H    -0.63537   0.42318   0.41593   0.00000  Uiso   1.00
O1     O    -0.61286   0.46504   0.47232   0.00000  Uiso   1.00
O2     O    -0.65240   0.50853   0.44517   0.00000  Uiso   1.00
H8     H    -0.70485   0.50371   0.36235   0.00000  Uiso   1.00
H9     H     0.20521   0.32069   1.16666   0.00000  Uiso   1.00
O3     O     0.22674   0.27435   1.20647   0.00000  Uiso   1.00
C61    C    -0.73698   1.06067   0.27360   0.00000  Uiso   1.00
C62    C    -0.72142   1.08426   0.29434   0.00000  Uiso   1.00
C63    C    -0.73599   1.10803   0.27259   0.00000  Uiso   1.00
C67    C     0.22432   1.13198   1.20388   0.00000  Uiso   1.00
C68    C     0.23725   1.15530   1.22646   0.00000  Uiso   1.00
C71    C    -0.72704   1.03756   0.30206   0.00000  Uiso   1.00
C72    C    -0.69922   1.03714   0.34560   0.00000  Uiso   1.00
C73    C    -0.68010   1.06003   0.36141   0.00000  Uiso   1.00
C74    C    -0.69116   1.08321   0.33597   0.00000  Uiso   1.00
C79    C     0.15070   1.05944   1.09649   0.00000  Uiso   1.00
C80    C     0.14153   1.03628   1.06960   0.00000  Uiso   1.00
C81    C     0.16151   1.01384   1.08394   0.00000  Uiso   1.00
C82    C     0.19003   1.01404   1.12653   0.00000  Uiso   1.00
C83    C    -0.72479   1.17881   0.29709   0.00000  Uiso   1.00
C84    C    -0.73770   1.20183   0.27307   0.00000  Uiso   1.00
H25    H     0.20583   1.13323   1.16691   0.00000  Uiso   1.00
H27    H    -0.74161   1.01964   0.29244   0.00000  Uiso   1.00
H28    H    -0.67514   1.10006   0.34912   0.00000  Uiso   1.00
H31    H     0.13537   1.07682   1.08408   0.00000  Uiso   1.00
O13    O     0.11286   1.03496   1.02768   0.00000  Uiso   1.00
O14    O     0.15240   0.99147   1.05483   0.00000  Uiso   1.00
H32    H     0.20485   0.99629   1.13765   0.00000  Uiso   1.00
H33    H    -0.70522   1.17930   0.33335   0.00000  Uiso   1.00
O15    O    -0.72675   1.22565   0.29354   0.00000  Uiso   1.00
C242   C    -0.53560   0.49552   0.52786   0.00000  Uiso   1.00
O49    O    -0.57165   0.49129   0.55408   0.00000  Uiso   1.00
C254   C     0.03560   0.99552   1.02786   0.00000  Uiso   1.00
O57    O     0.07165   0.99129   1.05408   0.00000  Uiso   1.00
Fe1    Fe   -0.61227   0.50000   0.50000   0.00000  Uiso   1.00
Fe3    Fe    0.11227   1.00000   1.00000   0.00000  Uiso   1.00
Fe9    Cu    0.25000   1.25000   0.25000   0.00000  Uiso   1.00
C241   C    -0.50000   0.49098   0.55610   0.00000  Uiso   1.00
H97    H    -0.50000   0.48402   0.59931   0.00000  Uiso   1.00
C253   C     0.00000   0.99097   1.05610   0.00000  Uiso   1.00
H101   H     0.00000   0.98402   1.09931   0.00000  Uiso   1.00
loop_
_geom_bond_atom_site_label_1
_geom_bond_atom_site_label_2
_geom_bond_distance
_geom_bond_site_symmetry_2
_ccdc_geom_bond_type
C1     C2      1.423   .     A
C1     C1      1.422   3_557 A
C1     C11     1.418   .     A
C2     C3      1.428   .     A
C2     C14     1.422   .     A
C3     C3      1.429   3_557 A
C3     C7      1.421   3_456 A
C7     C3      1.421   3_456 A
C7     C8      1.396   .     A
C7     H1      1.077   .     S
C8     C8      1.408   3_355 A
C8     C23     1.409   3_456 A
C11    C12     1.395   .     A
C11    H3      1.079   .     S
C12    C13     1.407   .     A
C12    C22     1.406   3_456 A
C13    C14     1.399   .     A
C13    C19     1.408   3_456 A
C14    H4      1.077   .     S
C19    C13     1.408   3_456 A
C19    C20     1.398   .     A
C19    H7      1.084   .     S
C20    C21     1.392   .     A
C20    O1      1.389   .     S
C21    C22     1.395   .     A
C21    O2      1.387   .     S
C22    C12     1.406   3_456 A
C22    H8      1.084   .     S
C23    C8      1.409   3_456 A
C23    C24     1.396   .     A
C23    H9      1.084   .     S
C24    C24     1.372   3_557 A
C24    O3      1.381   .     S
O1     Fe1     1.933   .     S
O2     Fe1     1.930   .     S
O3     Fe9     1.812   1_546 S
C61    C62     1.423   .     A
C61    C61     1.422   3_355 A
C61    C71     1.418   .     A
C62    C63     1.428   .     A
C62    C74     1.422   .     A
C63    C63     1.429   3_355 A
C63    C67     1.421   3_456 A
C67    C63     1.421   3_456 A
C67    C68     1.396   .     A
C67    H25     1.077   .     S
C68    C68     1.408   3_557 A
C68    C83     1.409   3_456 A
C71    C72     1.395   .     A
C71    H27     1.079   .     S
C72    C73     1.407   .     A
C72    C82     1.406   3_456 A
C73    C74     1.398   .     A
C73    C79     1.408   3_456 A
C74    H28     1.077   .     S
C79    C73     1.408   3_456 A
C79    C80     1.398   .     A
C79    H31     1.084   .     S
C80    C81     1.392   .     A
C80    O13     1.389   .     S
C81    C82     1.395   .     A
C81    O14     1.387   .     S
C82    C72     1.406   3_456 A
C82    H32     1.084   .     S
C83    C68     1.409   3_456 A
C83    C84     1.396   .     A
C83    H33     1.084   .     S
C84    C84     1.372   3_355 A
C84    O15     1.381   .     S
O13    Fe3     1.933   .     S
O14    Fe3     1.930   .     S
O15    Fe9     1.812   1_455 S
C242   C241    1.399   .     A
C242   C242    1.396   4_566 A
C242   O49     1.388   .     S
O49    Fe1     1.932   .     S
C254   C253    1.399   .     A
C254   C254    1.396   4_577 A
C254   O57     1.388   .     S
O57    Fe3     1.932   .     S
Fe1    O1      1.933   4_566 S
Fe1    O2      1.930   4_566 S
Fe1    O49     1.932   4_566 S
Fe3    O14     1.930   4_577 S
Fe3    O13     1.933   4_577 S
Fe3    O57     1.932   4_577 S
Fe9    O3      1.812   3_566 S
Fe9    O3      1.812   1_564 S
Fe9    O15     1.812   1_655 S
Fe9    O15     1.812   3_455 S
C241   C242    1.399   8_455 A
C241   H97     1.083   .     S
C253   C254    1.399   8     A
C253   H101    1.083   .     S
