data_lig-spacer-TN_O-Feoct
_audit_creation_date              2021-11-06
_audit_creation_method            'Materials Studio'
_symmetry_space_group_name_H-M    'IMMA'
_symmetry_Int_Tables_number       74
_symmetry_cell_setting            orthorhombic
loop_
_symmetry_equiv_pos_as_xyz
  x,y,z
  -x,-y+1/2,z
  -x,y+1/2,-z
  x,-y,-z
  -x,-y,-z
  x,y+1/2,-z
  x,-y+1/2,z
  -x,y,z
  x+1/2,y+1/2,z+1/2
  -x+1/2,-y,z+1/2
  -x+1/2,y,-z+1/2
  x+1/2,-y+1/2,-z+1/2
  -x+1/2,-y+1/2,-z+1/2
  x+1/2,y,-z+1/2
  x+1/2,-y,z+1/2
  -x+1/2,y+1/2,z+1/2
_cell_length_a                    66.7606
_cell_length_b                    50.2485
_cell_length_c                    43.5087
_cell_angle_alpha                 90.0000
_cell_angle_beta                  90.0000
_cell_angle_gamma                 90.0000
loop_
_atom_site_label
_atom_site_type_symbol
_atom_site_fract_x
_atom_site_fract_y
_atom_site_fract_z
_atom_site_U_iso_or_equiv
_atom_site_adp_type
_atom_site_occupancy
C1     C     0.14761   0.50911   0.98747   0.00000  Uiso   1.00
C2     C     0.12918   0.51963   0.97632   0.00000  Uiso   1.00
C3     C     0.11066   0.50953   0.98783   0.00000  Uiso   1.00
C7     C     0.09200   1.48264   0.02499   0.00000  Uiso   1.00
C8     C     0.07382   1.49140   0.01278   0.00000  Uiso   1.00
C11    C     0.16566   0.51659   0.97253   0.00000  Uiso   1.00
C12    C     0.16593   0.53594   0.94953   0.00000  Uiso   1.00
C13    C     0.14795   0.54852   0.94086   0.00000  Uiso   1.00
C14    C     0.12991   0.54042   0.95418   0.00000  Uiso   1.00
C19    C     0.14831   1.43123   0.08155   0.00000  Uiso   1.00
C20    C     0.16648   1.42431   0.09529   0.00000  Uiso   1.00
C21    C     0.18392   1.43702   0.08731   0.00000  Uiso   1.00
C22    C     0.18403   1.45685   0.06486   0.00000  Uiso   1.00
C23    C     0.05549   0.51700   0.97443   0.00000  Uiso   1.00
C24    C     0.03755   0.50830   0.98747   0.00000  Uiso   1.00
H1     H     0.09103   1.47019   0.04508   0.00000  Uiso   1.00
H3     H     0.17973   0.50703   0.97765   0.00000  Uiso   1.00
H4     H     0.11671   0.55114   0.94714   0.00000  Uiso   1.00
H7     H     0.13469   1.42116   0.08849   0.00000  Uiso   1.00
O1     O     0.16811   1.40479   0.11753   0.00000  Uiso   1.00
O2     O     0.20098   1.42902   0.10267   0.00000  Uiso   1.00
H8     H     0.19802   1.46640   0.05873   0.00000  Uiso   1.00
H9     H     0.05511   0.53020   0.95475   0.00000  Uiso   1.00
O3     O     0.01898   0.51568   0.97636   0.00000  Uiso   1.00
C241   C     0.22194   0.65489   0.78842   0.00000  Uiso   1.00
C242   C     0.23950   0.64120   0.79594   0.00000  Uiso   1.00
C243   C     0.23942   0.62200   0.81927   0.00000  Uiso   1.00
C244   C     0.22146   0.61663   0.83459   0.00000  Uiso   1.00
C245   C     0.20409   0.62981   0.82692   0.00000  Uiso   1.00
C246   C     0.20401   0.64924   0.80387   0.00000  Uiso   1.00
O49    O     0.22282   0.67392   0.76534   0.00000  Uiso   1.00
O50    O     0.25680   0.64711   0.77968   0.00000  Uiso   1.00
H97    H     0.25300   0.61144   0.82527   0.00000  Uiso   1.00
O51    O     0.21994   0.59805   0.85784   0.00000  Uiso   1.00
O52    O     0.18715   0.62261   0.84315   0.00000  Uiso   1.00
H98    H     0.19033   0.65964   0.79801   0.00000  Uiso   1.00
Fe9    Cu    0.19404   0.59674   0.87022   0.00000  Uiso   1.00
C338   C     0.24643   1.27403   0.26508   0.00000  Uiso   1.00
O113   O     0.24306   1.29835   0.27927   0.00000  Uiso   1.00
Fe1    Fe    0.25000   1.32576   0.25000   0.00000  Uiso   1.00
Fe25   Cu    0.00000   0.50000   0.00000   0.00000  Uiso   1.00
C337   C     0.24281   1.25000   0.28036   0.00000  Uiso   1.00
H129   H     0.23727   1.25000   0.30375   0.00000  Uiso   1.00
loop_
_geom_bond_atom_site_label_1
_geom_bond_atom_site_label_2
_geom_bond_distance
_geom_bond_site_symmetry_2
_ccdc_geom_bond_type
C1     C2      1.424   .     A
C1     C1      1.424   4_567 A
C1     C11     1.420   .     A
C2     C3      1.427   .     A
C2     C14     1.422   .     A
C3     C3      1.428   4_567 A
C3     C7      1.421   4_576 A
C7     C3      1.421   4_576 A
C7     C8      1.396   .     A
C7     H1      1.077   .     S
C8     C8      1.408   4_585 A
C8     C23     1.409   4_576 A
C11    C12     1.395   .     A
C11    H3      1.079   .     S
C12    C13     1.408   .     A
C12    C22     1.408   4_576 A
C13    C14     1.397   .     A
C13    C19     1.409   4_576 A
C14    H4      1.077   .     S
C19    C13     1.409   4_576 A
C19    C20     1.397   .     A
C19    H7      1.084   .     S
C20    C21     1.372   .     A
C20    O1      1.382   .     S
C21    C22     1.395   .     A
C21    O2      1.381   .     S
C22    C12     1.408   4_576 A
C22    H8      1.084   .     S
C23    C8      1.409   4_576 A
C23    C24     1.396   .     A
C23    H9      1.084   .     S
C24    C24     1.372   4_567 A
C24    O3      1.381   .     S
O1     Fe9     1.813   4_576 S
O2     Fe9     1.811   4_576 S
O3     Fe25    1.812   1_556 S
C241   C242    1.398   .     A
C241   C246    1.402   .     A
C241   O49     1.388   .     S
C242   C243    1.400   .     A
C242   O50     1.387   .     S
C243   C244    1.398   .     A
C243   H97     1.082   .     S
C244   C245    1.377   .     A
C244   O51     1.380   .     S
C245   C246    1.400   .     A
C245   O52     1.382   .     S
C246   H98     1.082   .     S
O49    Fe1     1.934   4_576 S
O50    Fe1     1.932   4_576 S
O51    Fe9     1.812   .     S
O52    Fe9     1.814   .     S
Fe9    O1      1.813   4_576 S
Fe9    O2      1.811   4_576 S
C338   C337    1.399   .     A
C338   C338    1.396   11    A
C338   O113    1.388   .     S
O113   Fe1     1.932   .     S
Fe1    O50     1.932   4_576 S
Fe1    O50     1.932   10_574 S
Fe1    O49     1.934   4_576 S
Fe1    O49     1.934   10_574 S
Fe1    O113    1.932   11    S
Fe25   O3      1.812   4_566 S
Fe25   O3      1.812   1_554 S
Fe25   O3      1.812   8_554 S
Fe25   O3      1.812   5_566 S
C337   C338    1.399   7_575 A
C337   H129    1.083   .     S
