data_lil-PcM_O-Feoct
_audit_creation_date              2021-11-06
_audit_creation_method            'Materials Studio'
_symmetry_space_group_name_H-M    'IMMA'
_symmetry_Int_Tables_number       74
_symmetry_cell_setting            orthorhombic
loop_
_symmetry_equiv_pos_as_xyz
  x,y,z
  -x,-y+1/2,z
  -x,y+1/2,-z
  x,-y,-z
  -x,-y,-z
  x,y+1/2,-z
  x,-y+1/2,z
  -x,y,z
  x+1/2,y+1/2,z+1/2
  -x+1/2,-y,z+1/2
  -x+1/2,y,-z+1/2
  x+1/2,-y+1/2,-z+1/2
  -x+1/2,-y+1/2,-z+1/2
  x+1/2,y,-z+1/2
  x+1/2,-y,z+1/2
  -x+1/2,y+1/2,z+1/2
_cell_length_a                    25.6028
_cell_length_b                    33.3762
_cell_length_c                    18.0539
_cell_angle_alpha                 90.0000
_cell_angle_beta                  90.0000
_cell_angle_gamma                 90.0000
loop_
_atom_site_label
_atom_site_type_symbol
_atom_site_fract_x
_atom_site_fract_y
_atom_site_fract_z
_atom_site_U_iso_or_equiv
_atom_site_adp_type
_atom_site_occupancy
C1     C     0.81600   1.44256   0.39461   0.00000  Uiso   1.00
C2     C     0.80238   1.41361   0.34138   0.00000  Uiso   1.00
C3     C     0.84126   1.39253   0.30239   0.00000  Uiso   1.00
C4     C     0.89448   1.39995   0.31595   0.00000  Uiso   1.00
C5     C     0.90675   1.42884   0.36913   0.00000  Uiso   1.00
C6     C     0.86916   1.44926   0.40679   0.00000  Uiso   1.00
C7     C     0.89492   1.47493   0.45396   0.00000  Uiso   1.00
N1     N     0.94765   1.47153   0.44764   0.00000  Uiso   1.00
C8     C     0.95394   1.44286   0.39487   0.00000  Uiso   1.00
H1     H     0.78641   1.45895   0.42488   0.00000  Uiso   1.00
O1     O     0.75054   1.40499   0.32575   0.00000  Uiso   1.00
O2     O     0.82550   1.36438   0.25046   0.00000  Uiso   1.00
H2     H     0.92468   1.38389   0.28629   0.00000  Uiso   1.00
C130   C     0.24999   0.78617  -0.21134   0.00000  Uiso   1.00
O33    O     0.24995   0.82279  -0.17494   0.00000  Uiso   1.00
N2     N    -0.00000   1.42945   0.37017   0.00000  Uiso   1.00
N5     N     0.12977   0.50000  -0.50000   0.00000  Uiso   1.00
Fe1    Ni    0.00000   0.50000  -0.50000   0.00000  Uiso   1.00
Fe5    Fe    0.25000   0.63594  -0.25000   0.00000  Uiso   1.00
C129   C     0.24998   0.75000  -0.17215   0.00000  Uiso   1.00
H33    H     0.24997   0.75000  -0.11219   0.00000  Uiso   1.00
loop_
_geom_bond_atom_site_label_1
_geom_bond_atom_site_label_2
_geom_bond_distance
_geom_bond_site_symmetry_2
_ccdc_geom_bond_type
C1     C2      1.407   .     A
C1     C6      1.397   .     A
C1     H1      1.083   .     S
C2     C3      1.408   .     A
C2     O1      1.387   .     S
C3     C4      1.407   .     A
C3     O2      1.387   .     S
C4     C5      1.397   .     A
C4     H2      1.083   .     S
C5     C6      1.361   .     A
C5     C8      1.376   .     A
C6     C7      1.376   .     A
C7     N1      1.360   .     A
C7     N5      1.338   5_675 A
N1     C8      1.360   .     A
N1     Fe1     1.895   1_666 S
C8     N2      1.338   1_655 A
O1     Fe5     1.933   5_675 S
O2     Fe5     1.933   5_675 S
C130   C129    1.399   .     A
C130   C130    1.396   11_554 A
C130   O33     1.388   .     S
O33    Fe5     1.932   7_565 S
N2     C8      1.338   1_455 A
N2     C8      1.338   8_655 A
N5     C7      1.338   5_675 A
N5     C7      1.338   8_644 A
Fe1    N1      1.895   5_675 S
Fe1    N1      1.895   8_644 S
Fe1    N1      1.895   1_444 S
Fe1    N1      1.895   4_475 S
Fe5    O1      1.933   5_675 S
Fe5    O1      1.933   15_474 S
Fe5    O2      1.933   15_474 S
Fe5    O2      1.933   5_675 S
Fe5    O33     1.932   13_564 S
Fe5    O33     1.932   7_565 S
C129   C130    1.399   7_565 A
C129   H33     1.083   .     S
