data_lil-spacer-PcM_O-Feoct
_audit_creation_date              2021-11-06
_audit_creation_method            'Materials Studio'
_symmetry_space_group_name_H-M    'IMMA'
_symmetry_Int_Tables_number       74
_symmetry_cell_setting            orthorhombic
loop_
_symmetry_equiv_pos_as_xyz
  x,y,z
  -x,-y+1/2,z
  -x,y+1/2,-z
  x,-y,-z
  -x,-y,-z
  x,y+1/2,-z
  x,-y+1/2,z
  -x,y,z
  x+1/2,y+1/2,z+1/2
  -x+1/2,-y,z+1/2
  -x+1/2,y,-z+1/2
  x+1/2,-y+1/2,-z+1/2
  -x+1/2,-y+1/2,-z+1/2
  x+1/2,y,-z+1/2
  x+1/2,-y,z+1/2
  -x+1/2,y+1/2,z+1/2
_cell_length_a                    46.5889
_cell_length_b                    48.1539
_cell_length_c                    32.9540
_cell_angle_alpha                 90.0000
_cell_angle_beta                  90.0000
_cell_angle_gamma                 90.0000
loop_
_atom_site_label
_atom_site_type_symbol
_atom_site_fract_x
_atom_site_fract_y
_atom_site_fract_z
_atom_site_U_iso_or_equiv
_atom_site_adp_type
_atom_site_occupancy
C1     C     0.89883   1.46033   0.94199   0.00000  Uiso   1.00
C2     C     0.89161   1.44028   0.91268   0.00000  Uiso   1.00
C3     C     0.91268   1.42587   0.89161   0.00000  Uiso   1.00
C4     C     0.94199   1.43081   0.89883   0.00000  Uiso   1.00
C5     C     0.94877   1.45081   0.92807   0.00000  Uiso   1.00
C6     C     0.92807   1.46496   0.94877   0.00000  Uiso   1.00
C7     C     0.94224   1.48269   0.97469   0.00000  Uiso   1.00
N1     N     0.97123   1.48032   0.97123   0.00000  Uiso   1.00
C8     C     0.97469   1.46050   0.94224   0.00000  Uiso   1.00
H1     H     0.88248   1.47162   0.95850   0.00000  Uiso   1.00
O1     O     0.86359   1.43367   0.90302   0.00000  Uiso   1.00
O2     O     0.90301   1.40672   0.86359   0.00000  Uiso   1.00
H2     H     0.95850   1.41963   0.88248   0.00000  Uiso   1.00
C129   C     0.19993   0.65121   0.22117   0.00000  Uiso   1.00
C130   C     0.22115   0.63670   0.19993   0.00000  Uiso   1.00
C131   C     0.21353   0.61681   0.17084   0.00000  Uiso   1.00
C132   C     0.18441   0.61181   0.16351   0.00000  Uiso   1.00
C133   C     0.16351   0.62610   0.18442   0.00000  Uiso   1.00
C134   C     0.17084   0.64600   0.21354   0.00000  Uiso   1.00
O33    O     0.20851   0.67070   0.24971   0.00000  Uiso   1.00
O34    O     0.24967   0.64258   0.20850   0.00000  Uiso   1.00
H33    H     0.22987   0.60552   0.15431   0.00000  Uiso   1.00
O35    O     0.17482   0.59263   0.13546   0.00000  Uiso   1.00
O36    O     0.13546   0.61955   0.17483   0.00000  Uiso   1.00
H34    H     0.15432   0.65717   0.22989   0.00000  Uiso   1.00
Fe13   Cu    0.13591   0.59294   0.13591   0.00000  Uiso   1.00
C226   C     0.25001   0.77507   0.22882   0.00000  Uiso   1.00
O97    O     0.25003   0.80045   0.20888   0.00000  Uiso   1.00
N2     N    -0.00000   1.45122   0.92868   0.00000  Uiso   1.00
N5     N     0.07132   0.50000   0.00000   0.00000  Uiso   1.00
Fe1    Ni    0.00000   0.50000   0.00000   0.00000  Uiso   1.00
Fe5    Fe    0.25000   0.67094   0.25000   0.00000  Uiso   1.00
C225   C     0.25001   0.75000   0.20735   0.00000  Uiso   1.00
H65    H     0.25003   0.75000   0.17450   0.00000  Uiso   1.00
loop_
_geom_bond_atom_site_label_1
_geom_bond_atom_site_label_2
_geom_bond_distance
_geom_bond_site_symmetry_2
_ccdc_geom_bond_type
C1     C2      1.406   .     A
C1     C6      1.399   .     A
C1     H1      1.082   .     S
C2     C3      1.388   .     A
C2     O1      1.381   .     S
C3     C4      1.406   .     A
C3     O2      1.381   .     S
C4     C5      1.399   .     A
C4     H2      1.082   .     S
C5     C6      1.363   .     A
C5     C8      1.376   .     A
C6     C7      1.376   .     A
C7     N1      1.360   .     A
C7     N5      1.338   5_676 A
N1     C8      1.360   .     A
N1     Fe1     1.896   1_666 S
C8     N2      1.338   1_655 A
O1     Fe13    1.814   5_676 S
O2     Fe13    1.814   5_676 S
C129   C130    1.398   .     A
C129   C134    1.401   .     A
C129   O33     1.387   .     S
C130   C131    1.401   .     A
C130   O34     1.387   .     S
C131   C132    1.399   .     A
C131   H33     1.082   .     S
C132   C133    1.377   .     A
C132   O35     1.381   .     S
C133   C134    1.399   .     A
C133   O36     1.381   .     S
C134   H34     1.082   .     S
O33    Fe5     1.933   .     S
O34    Fe5     1.933   .     S
O35    Fe13    1.813   .     S
O36    Fe13    1.813   .     S
Fe13   O1      1.814   5_676 S
Fe13   O2      1.814   5_676 S
C226   C225    1.399   .     A
C226   C226    1.396   11    A
C226   O97     1.388   .     S
O97    Fe5     1.932   7_565 S
N2     C8      1.338   1_455 A
N2     C8      1.338   8_655 A
N5     C7      1.338   5_676 A
N5     C7      1.338   8_644 A
Fe1    N1      1.896   5_676 S
Fe1    N1      1.896   8_644 S
Fe1    N1      1.896   1_444 S
Fe1    N1      1.896   4_476 S
Fe5    O33     1.933   11    S
Fe5    O34     1.933   11    S
Fe5    O97     1.932   13_565 S
Fe5    O97     1.932   7_565 S
C225   C226    1.399   7_565 A
C225   H65     1.083   .     S
