data_lil-spacer-PcMN_O-Feoct
_audit_creation_date              2021-11-06
_audit_creation_method            'Materials Studio'
_symmetry_space_group_name_H-M    'IMMA'
_symmetry_Int_Tables_number       74
_symmetry_cell_setting            orthorhombic
loop_
_symmetry_equiv_pos_as_xyz
  x,y,z
  -x,-y+1/2,z
  -x,y+1/2,-z
  x,-y,-z
  -x,-y,-z
  x,y+1/2,-z
  x,-y+1/2,z
  -x,y,z
  x+1/2,y+1/2,z+1/2
  -x+1/2,-y,z+1/2
  -x+1/2,y,-z+1/2
  x+1/2,-y+1/2,-z+1/2
  -x+1/2,-y+1/2,-z+1/2
  x+1/2,y,-z+1/2
  x+1/2,-y,z+1/2
  -x+1/2,y+1/2,z+1/2
_cell_length_a                    53.4625
_cell_length_b                    53.0098
_cell_length_c                    37.8154
_cell_angle_alpha                 90.0000
_cell_angle_beta                  90.0000
_cell_angle_gamma                 90.0000
loop_
_atom_site_label
_atom_site_type_symbol
_atom_site_fract_x
_atom_site_fract_y
_atom_site_fract_z
_atom_site_U_iso_or_equiv
_atom_site_adp_type
_atom_site_occupancy
C1     C     0.91192   1.46404   0.94955   0.00000  Uiso   1.00
C2     C     0.90508   1.44587   0.92405   0.00000  Uiso   1.00
C3     C     0.92406   1.43234   0.90508   0.00000  Uiso   1.00
C4     C     0.94955   1.43721   0.91191   0.00000  Uiso   1.00
C5     C     0.95533   1.45534   0.93735   0.00000  Uiso   1.00
C6     C     0.93736   1.46816   0.95533   0.00000  Uiso   1.00
C7     C     0.94969   1.48427   0.97793   0.00000  Uiso   1.00
N1     N     0.97494   1.48213   0.97493   0.00000  Uiso   1.00
C8     C     0.97794   1.46414   0.94968   0.00000  Uiso   1.00
H1     H     0.89798   1.47452   0.96426   0.00000  Uiso   1.00
H2     H     0.96426   1.42728   0.89797   0.00000  Uiso   1.00
C33    C     0.87976   0.55914   0.08297   0.00000  Uiso   1.00
C34    C     0.87350   0.57722   0.10833   0.00000  Uiso   1.00
C35    C     0.89167   0.59017   0.12651   0.00000  Uiso   1.00
C36    C     0.91703   0.58571   0.12025   0.00000  Uiso   1.00
H9     H     0.86508   0.54918   0.06899   0.00000  Uiso   1.00
O1     O     0.84905   0.58317   0.11669   0.00000  Uiso   1.00
O2     O     0.88331   0.60760   0.15096   0.00000  Uiso   1.00
H10    H     0.93100   0.59618   0.13494   0.00000  Uiso   1.00
C193   C     0.20637   0.66026   0.22488   0.00000  Uiso   1.00
C194   C     0.22486   0.64708   0.20637   0.00000  Uiso   1.00
C195   C     0.21821   0.62901   0.18101   0.00000  Uiso   1.00
C196   C     0.19284   0.62447   0.17463   0.00000  Uiso   1.00
C197   C     0.17463   0.63745   0.19285   0.00000  Uiso   1.00
C198   C     0.18102   0.65553   0.21823   0.00000  Uiso   1.00
O33    O     0.21385   0.67796   0.24975   0.00000  Uiso   1.00
O34    O     0.24971   0.65242   0.21383   0.00000  Uiso   1.00
H65    H     0.23245   0.61876   0.16661   0.00000  Uiso   1.00
O35    O     0.18449   0.60705   0.15019   0.00000  Uiso   1.00
O36    O     0.15019   0.63150   0.18450   0.00000  Uiso   1.00
H66    H     0.16662   0.66568   0.23248   0.00000  Uiso   1.00
Fe13   Cu    0.15058   0.60733   0.15058   0.00000  Uiso   1.00
C290   C     0.24999   0.77277   0.26846   0.00000  Uiso   1.00
O97    O     0.24998   0.79583   0.28583   0.00000  Uiso   1.00
N2     N    -0.00000   1.45571   0.93786   0.00000  Uiso   1.00
N5     N     0.06213   0.50000  -0.00000   0.00000  Uiso   1.00
Fe1    Ni    0.00000   0.50000   0.00000   0.00000  Uiso   1.00
Fe5    Fe    0.25000   0.67818   0.25000   0.00000  Uiso   1.00
C289   C     0.24999   0.75000   0.28717   0.00000  Uiso   1.00
H97    H     0.24998   0.75000   0.31579   0.00000  Uiso   1.00
loop_
_geom_bond_atom_site_label_1
_geom_bond_atom_site_label_2
_geom_bond_distance
_geom_bond_site_symmetry_2
_ccdc_geom_bond_type
C1     C2      1.411   .     A
C1     C6      1.394   .     A
C1     H1      1.084   .     S
C2     C3      1.435   .     A
C2     C33     1.405   4_576 A
C3     C4      1.411   .     A
C3     C36     1.405   4_576 A
C4     C5      1.394   .     A
C4     H2      1.084   .     S
C5     C6      1.359   .     A
C5     C8      1.377   .     A
C6     C7      1.377   .     A
C7     N1      1.359   .     A
C7     N5      1.338   5_676 A
N1     C8      1.359   .     A
N1     Fe1     1.895   1_666 S
C8     N2      1.338   1_655 A
C33    C2      1.405   4_576 A
C33    C34     1.396   .     A
C33    H9      1.083   .     S
C34    C35     1.374   .     A
C34    O1      1.381   .     S
C35    C36     1.396   .     A
C35    O2      1.381   .     S
C36    C3      1.405   4_576 A
C36    H10     1.083   .     S
O1     Fe13    1.812   8_655 S
O2     Fe13    1.812   8_655 S
C193   C194    1.398   .     A
C193   C198    1.401   .     A
C193   O33     1.387   .     S
C194   C195    1.401   .     A
C194   O34     1.387   .     S
C195   C196    1.399   .     A
C195   H65     1.082   .     S
C196   C197    1.377   .     A
C196   O35     1.381   .     S
C197   C198    1.399   .     A
C197   O36     1.381   .     S
C198   H66     1.082   .     S
O33    Fe5     1.933   .     S
O34    Fe5     1.933   .     S
O35    Fe13    1.813   .     S
O36    Fe13    1.813   .     S
Fe13   O2      1.812   8_655 S
Fe13   O1      1.812   8_655 S
C290   C289    1.399   .     A
C290   C290    1.396   11    A
C290   O97     1.388   .     S
O97    Fe5     1.932   7_565 S
N2     C8      1.338   1_455 A
N2     C8      1.338   8_655 A
N5     C7      1.338   5_676 A
N5     C7      1.338   8_644 A
Fe1    N1      1.895   5_676 S
Fe1    N1      1.895   8_644 S
Fe1    N1      1.895   1_444 S
Fe1    N1      1.895   4_476 S
Fe5    O33     1.933   11    S
Fe5    O34     1.933   11    S
Fe5    O97     1.932   13_565 S
Fe5    O97     1.932   7_565 S
C289   C290    1.399   7_565 A
C289   H97     1.083   .     S
