data_mot-PcM_O-Zntet
_audit_creation_date              2021-11-06
_audit_creation_method            'Materials Studio'
_symmetry_space_group_name_H-M    'P1'
_symmetry_Int_Tables_number       1
_symmetry_cell_setting            triclinic
loop_
_symmetry_equiv_pos_as_xyz
  x,y,z
_cell_length_a                    35.2435
_cell_length_b                    35.2435
_cell_length_c                    17.9085
_cell_angle_alpha                 90.0000
_cell_angle_beta                  90.0011
_cell_angle_gamma                 89.9879
loop_
_atom_site_label
_atom_site_type_symbol
_atom_site_fract_x
_atom_site_fract_y
_atom_site_fract_z
_atom_site_U_iso_or_equiv
_atom_site_adp_type
_atom_site_occupancy
C1     C     0.96013   0.15108   1.00010   0.00000  Uiso   1.00
C2     C     0.98026   0.18553   1.00009   0.00000  Uiso   1.00
C3     C     0.02074   0.18552   1.00008   0.00000  Uiso   1.00
C4     C     0.04086   0.15105   1.00006   0.00000  Uiso   1.00
C5     C     0.01979   0.11751   1.00007   0.00000  Uiso   1.00
C6     C     0.98119   0.11753   1.00009   0.00000  Uiso   1.00
C7     C     0.97017   0.08006   1.00010   0.00000  Uiso   1.00
N1     N     0.00048   0.05618   1.00009   0.00000  Uiso   1.00
C8     C     0.03080   0.08003   1.00007   0.00000  Uiso   1.00
N2     N     0.06714   0.06903   0.00006   0.00000  Uiso   1.00
C9     C     0.07812   0.03269   0.00008   0.00000  Uiso   1.00
N3     N     0.05425   0.00238   1.00008   0.00000  Uiso   1.00
C10    C     0.07811   0.97206   1.00010   0.00000  Uiso   1.00
C11    C     0.11559   0.98306   0.00010   0.00000  Uiso   1.00
C12    C     0.11559   0.02166   0.00008   0.00000  Uiso   1.00
N4     N     0.00047   0.94863   1.00009   0.00000  Uiso   1.00
C13    C     0.03077   0.92475   1.00010   0.00000  Uiso   1.00
N5     N     0.06712   0.93573   1.00011   0.00000  Uiso   1.00
C14    C     0.01976   0.88728   1.00009   0.00000  Uiso   1.00
C15    C     0.98115   0.88729   0.00007   0.00000  Uiso   1.00
C16    C     0.97015   0.92477   0.00007   0.00000  Uiso   1.00
C17    C     0.14914   0.04271   0.00007   0.00000  Uiso   1.00
C18    C     0.18360   0.02258   0.00008   0.00000  Uiso   1.00
C19    C     0.18359   0.98210   0.00010   0.00000  Uiso   1.00
C20    C     0.14913   0.96199   0.00011   0.00000  Uiso   1.00
C21    C     0.96009   0.85376   0.00006   0.00000  Uiso   1.00
C22    C     0.98021   0.81929   1.00007   0.00000  Uiso   1.00
C23    C     0.02068   0.81928   1.00009   0.00000  Uiso   1.00
C24    C     0.04081   0.85373   1.00010   0.00000  Uiso   1.00
N6     N     0.94670   0.00242   1.00009   0.00000  Uiso   1.00
C25    C     0.92283   0.97212   0.00008   0.00000  Uiso   1.00
N7     N     0.93381   0.93577   0.00006   0.00000  Uiso   1.00
C26    C     0.88535   0.98314   0.00009   0.00000  Uiso   1.00
C27    C     0.88536   0.02175   1.00011   0.00000  Uiso   1.00
C28    C     0.92284   0.03274   1.00011   0.00000  Uiso   1.00
C29    C     0.85182   0.04282   1.00013   0.00000  Uiso   1.00
C30    C     0.81735   0.02270   0.00012   0.00000  Uiso   1.00
C31    C     0.81735   0.98223   0.00010   0.00000  Uiso   1.00
C32    C     0.85181   0.96209   0.00008   0.00000  Uiso   1.00
N8     N     0.93383   0.06908   1.00011   0.00000  Uiso   1.00
H1     H     0.92942   0.15064   1.00012   0.00000  Uiso   1.00
O1     O     0.96089   0.22005   1.00010   0.00000  Uiso   1.00
O2     O     0.04012   0.22002   1.00007   0.00000  Uiso   1.00
H2     H     0.07157   0.15059   0.00005   0.00000  Uiso   1.00
H3     H     0.14869   0.07343   0.00006   0.00000  Uiso   1.00
O3     O     0.21811   0.04194   0.00007   0.00000  Uiso   1.00
O4     O     0.21810   0.96271   0.00011   0.00000  Uiso   1.00
H4     H     0.14867   0.93127   0.00012   0.00000  Uiso   1.00
H5     H     0.92938   0.85422   0.00005   0.00000  Uiso   1.00
O5     O     0.96083   0.78479   1.00007   0.00000  Uiso   1.00
O6     O     0.04005   0.78476   1.00010   0.00000  Uiso   1.00
H6     H     0.07153   0.85417   1.00012   0.00000  Uiso   1.00
H7     H     0.85227   0.07353   1.00014   0.00000  Uiso   1.00
O7     O     0.78285   0.04209   0.00013   0.00000  Uiso   1.00
O8     O     0.78284   0.96286   0.00009   0.00000  Uiso   1.00
H8     H     0.85226   0.93138   0.00006   0.00000  Uiso   1.00
Ni1    Ni    0.00047   0.00240   1.00007   0.00000  Uiso   1.00
C33    C     0.00051   0.35374   0.07952   0.00000  Uiso   1.00
C34    C     0.00051   0.31927   0.03992   0.00000  Uiso   1.00
C35    C     0.00051   0.31927   0.96026   0.00000  Uiso   1.00
C36    C     0.00050   0.35374   0.92066   0.00000  Uiso   1.00
C37    C     0.00050   0.38728   0.96210   0.00000  Uiso   1.00
C38    C     0.00050   0.38728   0.03807   0.00000  Uiso   1.00
C39    C     0.00049   0.42475   0.05973   0.00000  Uiso   1.00
N9     N     0.00048   0.44862   0.00009   0.00000  Uiso   1.00
C40    C     0.00049   0.42475   0.94044   0.00000  Uiso   1.00
N10    N     0.00049   0.43574   0.86892   0.00000  Uiso   1.00
C41    C     0.00048   0.47207   0.84729   0.00000  Uiso   1.00
N11    N     0.00047   0.50240   0.89423   0.00000  Uiso   1.00
C42    C     0.00046   0.53274   0.84729   0.00000  Uiso   1.00
C43    C     0.00047   0.52175   0.77355   0.00000  Uiso   1.00
C44    C     0.00048   0.48306   0.77355   0.00000  Uiso   1.00
N12    N     0.00046   0.55619   0.00009   0.00000  Uiso   1.00
C45    C     0.00045   0.58005   0.94044   0.00000  Uiso   1.00
N13    N     0.00045   0.56907   0.86892   0.00000  Uiso   1.00
C46    C     0.00044   0.61753   0.96210   0.00000  Uiso   1.00
C47    C     0.00044   0.61753   0.03807   0.00000  Uiso   1.00
C48    C     0.00045   0.58005   0.05973   0.00000  Uiso   1.00
C49    C     0.00048   0.46206   0.70729   0.00000  Uiso   1.00
C50    C     0.00047   0.48271   0.64009   0.00000  Uiso   1.00
C51    C     0.00046   0.52210   0.64009   0.00000  Uiso   1.00
C52    C     0.00046   0.54275   0.70729   0.00000  Uiso   1.00
C53    C     0.00044   0.65107   0.07952   0.00000  Uiso   1.00
C54    C     0.00043   0.68553   0.03992   0.00000  Uiso   1.00
C55    C     0.00044   0.68553   0.96026   0.00000  Uiso   1.00
C56    C     0.00044   0.65107   0.92066   0.00000  Uiso   1.00
N14    N     0.00048   0.50240   0.10594   0.00000  Uiso   1.00
C57    C     0.00047   0.53274   0.15288   0.00000  Uiso   1.00
N15    N     0.00046   0.56907   0.13125   0.00000  Uiso   1.00
C58    C     0.00047   0.52175   0.22663   0.00000  Uiso   1.00
C59    C     0.00048   0.48306   0.22663   0.00000  Uiso   1.00
C60    C     0.00048   0.47207   0.15288   0.00000  Uiso   1.00
C61    C     0.00049   0.46206   0.29289   0.00000  Uiso   1.00
C62    C     0.00048   0.48271   0.36008   0.00000  Uiso   1.00
C63    C     0.00047   0.52210   0.36008   0.00000  Uiso   1.00
C64    C     0.00047   0.54275   0.29289   0.00000  Uiso   1.00
N16    N     0.00049   0.43574   0.13125   0.00000  Uiso   1.00
H9     H     0.00051   0.35419   0.13996   0.00000  Uiso   1.00
O9     O     0.00052   0.28477   0.07805   0.00000  Uiso   1.00
O10    O     0.00051   0.28477   0.92213   0.00000  Uiso   1.00
H10    H     0.00050   0.35419   0.86021   0.00000  Uiso   1.00
H11    H     0.00049   0.43135   0.70759   0.00000  Uiso   1.00
O11    O     0.00048   0.46556   0.57078   0.00000  Uiso   1.00
O12    O     0.00046   0.53925   0.57078   0.00000  Uiso   1.00
H12    H     0.00045   0.57346   0.70759   0.00000  Uiso   1.00
H13    H     0.00044   0.65062   0.13996   0.00000  Uiso   1.00
O13    O     0.00043   0.72004   0.07804   0.00000  Uiso   1.00
O14    O     0.00044   0.72004   0.92213   0.00000  Uiso   1.00
H14    H     0.00044   0.65062   0.86021   0.00000  Uiso   1.00
H15    H     0.00049   0.43135   0.29259   0.00000  Uiso   1.00
O15    O     0.00048   0.46556   0.42939   0.00000  Uiso   1.00
O16    O     0.00046   0.53925   0.42939   0.00000  Uiso   1.00
H16    H     0.00046   0.57346   0.29259   0.00000  Uiso   1.00
Ni2    Ni    0.00047   0.50240   0.00009   0.00000  Uiso   1.00
C65    C     0.46013   0.00237   0.29290   0.00000  Uiso   1.00
C66    C     0.48078   0.00237   0.36009   0.00000  Uiso   1.00
C67    C     0.52017   0.00239   0.36009   0.00000  Uiso   1.00
C68    C     0.54082   0.00241   0.29290   0.00000  Uiso   1.00
C69    C     0.51981   0.00240   0.22664   0.00000  Uiso   1.00
C70    C     0.48113   0.00239   0.22664   0.00000  Uiso   1.00
C71    C     0.47014   0.00239   0.15289   0.00000  Uiso   1.00
N17    N     0.50047   0.00240   0.10595   0.00000  Uiso   1.00
C72    C     0.53080   0.00241   0.15290   0.00000  Uiso   1.00
N18    N     0.56714   0.00243   0.13127   0.00000  Uiso   1.00
C73    C     0.57812   0.00245   0.05975   0.00000  Uiso   1.00
N19    N     0.55426   0.00244   0.00010   0.00000  Uiso   1.00
C74    C     0.57812   0.00246   0.94045   0.00000  Uiso   1.00
C75    C     0.61560   0.00247   0.96212   0.00000  Uiso   1.00
C76    C     0.61560   0.00247   0.03809   0.00000  Uiso   1.00
N20    N     0.50047   0.00240   0.89424   0.00000  Uiso   1.00
C77    C     0.53080   0.00242   0.84730   0.00000  Uiso   1.00
N21    N     0.56714   0.00245   0.86893   0.00000  Uiso   1.00
C78    C     0.51981   0.00241   0.77356   0.00000  Uiso   1.00
C79    C     0.48113   0.00238   0.77356   0.00000  Uiso   1.00
C80    C     0.47014   0.00238   0.84730   0.00000  Uiso   1.00
C81    C     0.64914   0.00247   0.07953   0.00000  Uiso   1.00
C82    C     0.68360   0.00248   0.03994   0.00000  Uiso   1.00
C83    C     0.68360   0.00249   0.96028   0.00000  Uiso   1.00
C84    C     0.64914   0.00249   0.92068   0.00000  Uiso   1.00
C85    C     0.46013   0.00236   0.70730   0.00000  Uiso   1.00
C86    C     0.48078   0.00237   0.64010   0.00000  Uiso   1.00
C87    C     0.52017   0.00239   0.64010   0.00000  Uiso   1.00
C88    C     0.54082   0.00241   0.70730   0.00000  Uiso   1.00
N22    N     0.44669   0.00237   0.00010   0.00000  Uiso   1.00
C89    C     0.42282   0.00235   0.94045   0.00000  Uiso   1.00
N23    N     0.43380   0.00236   0.86893   0.00000  Uiso   1.00
C90    C     0.38535   0.00233   0.96211   0.00000  Uiso   1.00
C91    C     0.38535   0.00234   0.03808   0.00000  Uiso   1.00
C92    C     0.42282   0.00236   0.05974   0.00000  Uiso   1.00
C93    C     0.35180   0.00233   0.07952   0.00000  Uiso   1.00
C94    C     0.31734   0.00232   0.03992   0.00000  Uiso   1.00
C95    C     0.31734   0.00231   0.96026   0.00000  Uiso   1.00
C96    C     0.35180   0.00232   0.92066   0.00000  Uiso   1.00
N24    N     0.43380   0.00237   0.13126   0.00000  Uiso   1.00
H17    H     0.42942   0.00235   0.29259   0.00000  Uiso   1.00
O17    O     0.46362   0.00235   0.42940   0.00000  Uiso   1.00
O18    O     0.53732   0.00239   0.42940   0.00000  Uiso   1.00
H18    H     0.57153   0.00242   0.29260   0.00000  Uiso   1.00
H19    H     0.64869   0.00246   0.13998   0.00000  Uiso   1.00
O19    O     0.71811   0.00248   0.07807   0.00000  Uiso   1.00
O20    O     0.71811   0.00250   0.92215   0.00000  Uiso   1.00
H20    H     0.64869   0.00249   0.86023   0.00000  Uiso   1.00
H21    H     0.42942   0.00235   0.70760   0.00000  Uiso   1.00
O21    O     0.46362   0.00235   0.57079   0.00000  Uiso   1.00
O22    O     0.53732   0.00239   0.57079   0.00000  Uiso   1.00
H22    H     0.57153   0.00243   0.70760   0.00000  Uiso   1.00
H23    H     0.35226   0.00234   0.13997   0.00000  Uiso   1.00
O23    O     0.28283   0.00232   0.07805   0.00000  Uiso   1.00
O24    O     0.28283   0.00230   0.92213   0.00000  Uiso   1.00
H24    H     0.35226   0.00231   0.86022   0.00000  Uiso   1.00
Ni3    Ni    0.50047   0.00240   0.00010   0.00000  Uiso   1.00
Zn1    Zn    0.00051   0.25240   1.00009   0.00000  Uiso   1.00
Zn2    Zn    0.75048   0.00249   0.00011   0.00000  Uiso   1.00
Zn3    Zn    0.00044   0.75241   1.00009   0.00000  Uiso   1.00
Zn4    Zn    0.25047   0.00232   0.00009   0.00000  Uiso   1.00
Cu1    Cu    0.00047   0.50241   0.50009   0.00000  Uiso   1.00
Cu2    Cu    0.50047   0.00237   0.50010   0.00000  Uiso   1.00
loop_
_geom_bond_atom_site_label_1
_geom_bond_atom_site_label_2
_geom_bond_distance
_geom_bond_site_symmetry_2
_ccdc_geom_bond_type
C1     C2      1.406   .     A
C1     C6      1.396   .     A
C1     H1      1.083   .     S
C2     C3      1.427   1_655 A
C2     O1      1.395   .     S
C3     C2      1.427   1_455 A
C3     C4      1.406   .     A
C3     O2      1.395   .     S
C4     C5      1.396   .     A
C4     H2      1.083   1_556 S
C5     C6      1.361   1_455 A
C5     C8      1.377   .     A
C6     C5      1.361   1_655 A
C6     C7      1.377   .     A
C7     N1      1.360   1_655 A
C7     N8      1.338   .     A
N1     C7      1.360   1_455 A
N1     C8      1.360   .     A
N1     Ni1     1.895   .     S
C8     N2      1.338   1_556 A
N2     C8      1.338   1_554 A
N2     C9      1.338   .     A
C9     N3      1.360   1_554 A
C9     C12     1.377   .     A
N3     C9      1.360   1_556 A
N3     C10     1.360   1_545 A
N3     Ni1     1.895   .     S
C10    N3      1.360   1_565 A
C10    C11     1.377   1_556 A
C10    N5      1.338   .     A
C11    C10     1.377   1_554 A
C11    C12     1.361   1_565 A
C11    C20     1.396   .     A
C12    C11     1.361   1_545 A
C12    C17     1.396   .     A
N4     C13     1.360   .     A
N4     C16     1.360   1_456 A
N4     Ni1     1.895   1_565 S
C13    N5      1.338   .     A
C13    C14     1.377   .     A
C14    C15     1.361   1_456 A
C14    C24     1.396   .     A
C15    C14     1.361   1_654 A
C15    C16     1.377   .     A
C15    C21     1.396   .     A
C16    N4      1.360   1_654 A
C16    N7      1.338   .     A
C17    C18     1.406   .     A
C17    H3      1.083   .     S
C18    C19     1.427   1_545 A
C18    O3      1.395   .     S
C19    C18     1.427   1_565 A
C19    C20     1.406   .     A
C19    O4      1.395   .     S
C20    H4      1.083   .     S
C21    C22     1.406   1_554 A
C21    H5      1.083   .     S
C22    C21     1.406   1_556 A
C22    C23     1.427   1_655 A
C22    O5      1.395   .     S
C23    C22     1.427   1_455 A
C23    C24     1.406   .     A
C23    O6      1.395   .     S
C24    H6      1.083   .     S
N6     C25     1.360   1_546 A
N6     C28     1.360   .     A
N6     Ni1     1.895   1_655 S
C25    N6      1.360   1_564 A
C25    N7      1.338   .     A
C25    C26     1.377   .     A
C26    C27     1.361   1_564 A
C26    C32     1.396   .     A
C27    C26     1.361   1_546 A
C27    C28     1.377   .     A
C27    C29     1.396   .     A
C28    N8      1.338   .     A
C29    C30     1.406   1_556 A
C29    H7      1.083   .     S
C30    C29     1.406   1_554 A
C30    C31     1.427   1_545 A
C30    O7      1.395   .     S
C31    C30     1.427   1_565 A
C31    C32     1.406   .     A
C31    O8      1.395   .     S
C32    H8      1.083   .     S
O1     Zn1     1.803   1_655 S
O2     Zn1     1.803   .     S
H2     C4      1.083   1_554 S
O3     Zn4     1.803   .     S
O4     Zn4     1.803   1_565 S
O5     Zn3     1.803   1_655 S
O6     Zn3     1.803   .     S
O7     Zn2     1.803   .     S
O8     Zn2     1.803   1_565 S
Ni1    N6      1.895   1_455 S
Ni1    N4      1.895   1_545 S
C33    C34     1.406   .     A
C33    C38     1.396   .     A
C33    H9      1.083   .     S
C34    C35     1.427   1_554 A
C34    O9      1.395   .     S
C35    C34     1.427   1_556 A
C35    C36     1.406   .     A
C35    O10     1.395   .     S
C36    C37     1.396   .     A
C36    H10     1.083   .     S
C37    C38     1.360   1_556 A
C37    C40     1.377   .     A
C38    C37     1.360   1_554 A
C38    C39     1.377   .     A
C39    N9      1.360   .     A
C39    N16     1.338   .     A
N9     C40     1.360   1_554 A
N9     Ni2     1.896   .     S
C40    N9      1.360   1_556 A
C40    N10     1.338   .     A
N10    C41     1.338   .     A
C41    N11     1.360   .     A
C41    C44     1.376   .     A
N11    C42     1.360   .     A
N11    Ni2     1.896   1_556 S
C42    C43     1.376   .     A
C42    N13     1.338   .     A
C43    C44     1.363   .     A
C43    C52     1.399   .     A
C44    C49     1.399   .     A
N12    C45     1.360   1_554 A
N12    C48     1.360   .     A
N12    Ni2     1.896   .     S
C45    N12     1.360   1_556 A
C45    N13     1.338   .     A
C45    C46     1.377   .     A
C46    C47     1.360   1_556 A
C46    C56     1.396   .     A
C47    C46     1.360   1_554 A
C47    C48     1.377   .     A
C47    C53     1.396   .     A
C48    N15     1.338   .     A
C49    C50     1.406   .     A
C49    H11     1.082   .     S
C50    C51     1.388   .     A
C50    O11     1.381   .     S
C51    C52     1.406   .     A
C51    O12     1.381   .     S
C52    H12     1.082   .     S
C53    C54     1.406   .     A
C53    H13     1.083   .     S
C54    C55     1.427   1_554 A
C54    O13     1.395   .     S
C55    C54     1.427   1_556 A
C55    C56     1.406   .     A
C55    O14     1.395   .     S
C56    H14     1.083   .     S
N14    C57     1.360   .     A
N14    C60     1.360   .     A
N14    Ni2     1.896   .     S
C57    N15     1.338   .     A
C57    C58     1.376   .     A
C58    C59     1.363   .     A
C58    C64     1.399   .     A
C59    C60     1.376   .     A
C59    C61     1.399   .     A
C60    N16     1.338   .     A
C61    C62     1.406   .     A
C61    H15     1.082   .     S
C62    C63     1.388   .     A
C62    O15     1.381   .     S
C63    C64     1.406   .     A
C63    O16     1.381   .     S
C64    H16     1.082   .     S
O9     Zn1     1.803   1_554 S
O10    Zn1     1.803   .     S
O11    Cu1     1.814   .     S
O12    Cu1     1.814   .     S
O13    Zn3     1.803   1_554 S
O14    Zn3     1.803   .     S
O15    Cu1     1.814   .     S
O16    Cu1     1.814   .     S
Ni2    N11     1.896   1_554 S
C65    C66     1.406   .     A
C65    C70     1.399   .     A
C65    H17     1.082   .     S
C66    C67     1.388   .     A
C66    O17     1.381   .     S
C67    C68     1.406   .     A
C67    O18     1.381   .     S
C68    C69     1.399   .     A
C68    H18     1.082   .     S
C69    C70     1.363   .     A
C69    C72     1.376   .     A
C70    C71     1.376   .     A
C71    N17     1.360   .     A
C71    N24     1.338   .     A
N17    C72     1.360   .     A
N17    Ni3     1.896   .     S
C72    N18     1.338   .     A
N18    C73     1.338   .     A
C73    N19     1.360   .     A
C73    C76     1.377   .     A
N19    C74     1.360   1_554 A
N19    Ni3     1.896   .     S
C74    N19     1.360   1_556 A
C74    C75     1.377   .     A
C74    N21     1.338   .     A
C75    C76     1.360   1_556 A
C75    C84     1.396   .     A
C76    C75     1.360   1_554 A
C76    C81     1.396   .     A
N20    C77     1.360   .     A
N20    C80     1.360   .     A
N20    Ni3     1.896   1_556 S
C77    N21     1.338   .     A
C77    C78     1.376   .     A
C78    C79     1.363   .     A
C78    C88     1.399   .     A
C79    C80     1.376   .     A
C79    C85     1.399   .     A
C80    N23     1.338   .     A
C81    C82     1.406   .     A
C81    H19     1.083   .     S
C82    C83     1.427   1_554 A
C82    O19     1.395   .     S
C83    C82     1.427   1_556 A
C83    C84     1.406   .     A
C83    O20     1.395   .     S
C84    H20     1.083   .     S
C85    C86     1.406   .     A
C85    H21     1.082   .     S
C86    C87     1.388   .     A
C86    O21     1.381   .     S
C87    C88     1.406   .     A
C87    O22     1.381   .     S
C88    H22     1.082   .     S
N22    C89     1.360   1_554 A
N22    C92     1.360   .     A
N22    Ni3     1.896   .     S
C89    N22     1.360   1_556 A
C89    N23     1.338   .     A
C89    C90     1.377   .     A
C90    C91     1.360   1_556 A
C90    C96     1.396   .     A
C91    C90     1.360   1_554 A
C91    C92     1.377   .     A
C91    C93     1.396   .     A
C92    N24     1.338   .     A
C93    C94     1.406   .     A
C93    H23     1.083   .     S
C94    C95     1.427   1_554 A
C94    O23     1.395   .     S
C95    C94     1.427   1_556 A
C95    C96     1.406   .     A
C95    O24     1.395   .     S
C96    H24     1.083   .     S
O17    Cu2     1.814   .     S
O18    Cu2     1.814   .     S
O19    Zn2     1.803   .     S
O20    Zn2     1.803   1_556 S
O21    Cu2     1.814   .     S
O22    Cu2     1.814   .     S
O23    Zn4     1.803   .     S
O24    Zn4     1.803   1_556 S
Ni3    N20     1.896   1_554 S
Zn1    O1      1.803   1_455 S
Zn1    O9      1.803   1_556 S
Zn2    O8      1.803   1_545 S
Zn2    O20     1.803   1_554 S
Zn3    O5      1.803   1_455 S
Zn3    O13     1.803   1_556 S
Zn4    O4      1.803   1_545 S
Zn4    O24     1.803   1_554 S
