data_mot-PcMN_O-Zntet
_audit_creation_date              2021-11-06
_audit_creation_method            'Materials Studio'
_symmetry_space_group_name_H-M    'P1'
_symmetry_Int_Tables_number       1
_symmetry_cell_setting            triclinic
loop_
_symmetry_equiv_pos_as_xyz
  x,y,z
_cell_length_a                    44.9726
_cell_length_b                    44.9726
_cell_length_c                    22.7689
_cell_angle_alpha                 90.0624
_cell_angle_beta                  90.0618
_cell_angle_gamma                 90.1107
loop_
_atom_site_label
_atom_site_type_symbol
_atom_site_fract_x
_atom_site_fract_y
_atom_site_fract_z
_atom_site_U_iso_or_equiv
_atom_site_adp_type
_atom_site_occupancy
C1     C     0.97139   0.88367   0.00059   0.00000  Uiso   1.00
C2     C     0.98705   0.85651   0.00062   0.00000  Uiso   1.00
C3     C     0.01889   0.85654   0.00056   0.00000  Uiso   1.00
C4     C     0.03460   0.88374   0.00044   0.00000  Uiso   1.00
C5     C     0.01812   0.90997   0.00039   0.00000  Uiso   1.00
C6     C     0.98792   0.90994   0.00047   0.00000  Uiso   1.00
C7     C     0.97930   0.93930   0.00040   0.00000  Uiso   1.00
N1     N     0.00306   0.95802   0.00026   0.00000  Uiso   1.00
C8     C     0.02679   0.93934   0.00026   0.00000  Uiso   1.00
N2     N     0.05528   0.94798   0.00011   0.00000  Uiso   1.00
C9     C     0.06392   0.97647  -0.00004   0.00000  Uiso   1.00
N3     N     0.04524   0.00020  -0.00005   0.00000  Uiso   1.00
C10    C     0.06397   0.02396  -0.00018   0.00000  Uiso   1.00
C11    C     0.09333   0.01535  -0.00025   0.00000  Uiso   1.00
C12    C     0.09329   0.98514  -0.00017   0.00000  Uiso   1.00
N4     N     0.00315   0.04229  -0.00004   0.00000  Uiso   1.00
C13    C     0.02691   0.06102  -0.00017   0.00000  Uiso   1.00
N5     N     0.05539   0.05244  -0.00023   0.00000  Uiso   1.00
C14    C     0.01830   0.09038  -0.00024   0.00000  Uiso   1.00
C15    C     0.98809   0.09035  -0.00016   0.00000  Uiso   1.00
C16    C     0.97942   0.06097  -0.00003   0.00000  Uiso   1.00
C17    C     0.11952   0.96866  -0.00021   0.00000  Uiso   1.00
C18    C     0.14672   0.98437  -0.00032   0.00000  Uiso   1.00
C19    C     0.14676   0.01620  -0.00039   0.00000  Uiso   1.00
C20    C     0.11959   0.03187  -0.00036   0.00000  Uiso   1.00
C21    C     0.97161   0.11657  -0.00019   0.00000  Uiso   1.00
C22    C     0.98732   0.14377  -0.00030   0.00000  Uiso   1.00
C23    C     0.01915   0.14381  -0.00036   0.00000  Uiso   1.00
C24    C     0.03482   0.11664  -0.00034   0.00000  Uiso   1.00
N6     N     0.96097   0.00012   0.00025   0.00000  Uiso   1.00
C25    C     0.94229   0.02384   0.00024   0.00000  Uiso   1.00
N7     N     0.95093   0.05234   0.00011   0.00000  Uiso   1.00
C26    C     0.91292   0.01517   0.00037   0.00000  Uiso   1.00
C27    C     0.91289   0.98497   0.00045   0.00000  Uiso   1.00
C28    C     0.94224   0.97635   0.00038   0.00000  Uiso   1.00
C29    C     0.88662   0.96844   0.00056   0.00000  Uiso   1.00
C30    C     0.85945   0.98411   0.00059   0.00000  Uiso   1.00
C31    C     0.85949   0.01594   0.00052   0.00000  Uiso   1.00
C32    C     0.88669   0.03165   0.00041   0.00000  Uiso   1.00
N8     N     0.95083   0.94788   0.00045   0.00000  Uiso   1.00
H1     H     0.94731   0.88430   0.00064   0.00000  Uiso   1.00
H2     H     0.05869   0.88442   0.00037   0.00000  Uiso   1.00
H3     H     0.11884   0.94457  -0.00014   0.00000  Uiso   1.00
H4     H     0.11896   0.05595  -0.00041   0.00000  Uiso   1.00
H5     H     0.94752   0.11589  -0.00013   0.00000  Uiso   1.00
H6     H     0.05890   0.11601  -0.00039   0.00000  Uiso   1.00
H7     H     0.88725   0.94436   0.00062   0.00000  Uiso   1.00
H8     H     0.88737   0.05574   0.00035   0.00000  Uiso   1.00
C33    C     0.83233   0.96865   0.00066   0.00000  Uiso   1.00
C34    C     0.80551   0.98428   0.00066   0.00000  Uiso   1.00
C35    C     0.80554   0.01568   0.00062   0.00000  Uiso   1.00
C36    C     0.83240   0.03135   0.00056   0.00000  Uiso   1.00
C37    C     0.97160   0.82938   0.00070   0.00000  Uiso   1.00
C38    C     0.98723   0.80256   0.00070   0.00000  Uiso   1.00
C39    C     0.01863   0.80260   0.00067   0.00000  Uiso   1.00
C40    C     0.03430   0.82945   0.00060   0.00000  Uiso   1.00
C41    C     0.17381   0.96896  -0.00035   0.00000  Uiso   1.00
C42    C     0.20067   0.98463  -0.00041   0.00000  Uiso   1.00
C43    C     0.20070   0.01603  -0.00045   0.00000  Uiso   1.00
C44    C     0.17389   0.03165  -0.00045   0.00000  Uiso   1.00
C45    C     0.97191   0.17087  -0.00032   0.00000  Uiso   1.00
C46    C     0.98758   0.19772  -0.00038   0.00000  Uiso   1.00
C47    C     0.01898   0.19775  -0.00041   0.00000  Uiso   1.00
C48    C     0.03461   0.17094  -0.00042   0.00000  Uiso   1.00
H9     H     0.83193   0.94456   0.00069   0.00000  Uiso   1.00
O1     O     0.77847   0.96901   0.00067   0.00000  Uiso   1.00
O2     O     0.77854   0.03090   0.00063   0.00000  Uiso   1.00
H10    H     0.83205   0.05544   0.00052   0.00000  Uiso   1.00
H11    H     0.94751   0.82898   0.00073   0.00000  Uiso   1.00
O3     O     0.97196   0.77552   0.00072   0.00000  Uiso   1.00
O4     O     0.03385   0.77559   0.00068   0.00000  Uiso   1.00
H12    H     0.05839   0.82910   0.00055   0.00000  Uiso   1.00
H13    H     0.17415   0.94486  -0.00031   0.00000  Uiso   1.00
O5     O     0.22767   0.96940  -0.00041   0.00000  Uiso   1.00
O6     O     0.22775   0.03129  -0.00046   0.00000  Uiso   1.00
H14    H     0.17429   0.05575  -0.00048   0.00000  Uiso   1.00
H15    H     0.94782   0.17121  -0.00028   0.00000  Uiso   1.00
O7     O     0.97235   0.22472  -0.00037   0.00000  Uiso   1.00
O8     O     0.03425   0.22480  -0.00042   0.00000  Uiso   1.00
H16    H     0.05870   0.17133  -0.00045   0.00000  Uiso   1.00
Ni1    Ni    0.00311   0.00016   0.00011   0.00000  Uiso   1.00
C49    C     0.00324   0.38370   0.93749   0.00000  Uiso   1.00
C50    C     0.00327   0.35652   0.96842   0.00000  Uiso   1.00
C51    C     0.00330   0.35652   0.03130   0.00000  Uiso   1.00
C52    C     0.00327   0.38371   0.06234   0.00000  Uiso   1.00
C53    C     0.00323   0.40995   0.02980   0.00000  Uiso   1.00
C54    C     0.00321   0.40995   0.97014   0.00000  Uiso   1.00
C55    C     0.00316   0.43932   0.95313   0.00000  Uiso   1.00
N9     N     0.00314   0.45802   0.00007   0.00000  Uiso   1.00
C56    C     0.00318   0.43932   0.04693   0.00000  Uiso   1.00
N10    N     0.00317   0.44793   0.10321   0.00000  Uiso   1.00
C57    C     0.00313   0.47641   0.12028   0.00000  Uiso   1.00
N11    N     0.00309   0.50016   0.08339   0.00000  Uiso   1.00
C58    C     0.00305   0.52390   0.12038   0.00000  Uiso   1.00
C59    C     0.00307   0.51527   0.17837   0.00000  Uiso   1.00
C60    C     0.00312   0.48505   0.17830   0.00000  Uiso   1.00
N12    N     0.00300   0.54229   0.00025   0.00000  Uiso   1.00
C61    C     0.00299   0.56099   0.04719   0.00000  Uiso   1.00
N13    N     0.00301   0.55239   0.10343   0.00000  Uiso   1.00
C62    C     0.00294   0.59036   0.03018   0.00000  Uiso   1.00
C63    C     0.00293   0.59036   0.97052   0.00000  Uiso   1.00
C64    C     0.00297   0.56099   0.95339   0.00000  Uiso   1.00
C65    C     0.00315   0.46853   0.23009   0.00000  Uiso   1.00
C66    C     0.00312   0.48421   0.28380   0.00000  Uiso   1.00
C67    C     0.00307   0.51611   0.28387   0.00000  Uiso   1.00
C68    C     0.00305   0.53179   0.23023   0.00000  Uiso   1.00
C69    C     0.00289   0.61661   0.93798   0.00000  Uiso   1.00
C70    C     0.00288   0.64379   0.96902   0.00000  Uiso   1.00
C71    C     0.00290   0.64379   0.03190   0.00000  Uiso   1.00
C72    C     0.00293   0.61661   0.06283   0.00000  Uiso   1.00
N14    N     0.00306   0.50016   0.91693   0.00000  Uiso   1.00
C73    C     0.00301   0.52390   0.88004   0.00000  Uiso   1.00
N15    N     0.00297   0.55239   0.89711   0.00000  Uiso   1.00
C74    C     0.00302   0.51526   0.82202   0.00000  Uiso   1.00
C75    C     0.00307   0.48505   0.82195   0.00000  Uiso   1.00
C76    C     0.00309   0.47641   0.87994   0.00000  Uiso   1.00
C77    C     0.00309   0.46853   0.77009   0.00000  Uiso   1.00
C78    C     0.00307   0.48421   0.71645   0.00000  Uiso   1.00
C79    C     0.00302   0.51611   0.71652   0.00000  Uiso   1.00
C80    C     0.00299   0.53179   0.77023   0.00000  Uiso   1.00
N16    N     0.00314   0.44793   0.89689   0.00000  Uiso   1.00
H17    H     0.00322   0.38436   0.88992   0.00000  Uiso   1.00
H18    H     0.00328   0.38436   0.10991   0.00000  Uiso   1.00
H19    H     0.00318   0.44444   0.22876   0.00000  Uiso   1.00
H20    H     0.00301   0.55587   0.22900   0.00000  Uiso   1.00
H21    H     0.00288   0.61595   0.89041   0.00000  Uiso   1.00
H22    H     0.00295   0.61596   0.11040   0.00000  Uiso   1.00
H23    H     0.00313   0.44444   0.77132   0.00000  Uiso   1.00
H24    H     0.00296   0.55587   0.77156   0.00000  Uiso   1.00
C81    C     0.00310   0.46882   0.66271   0.00000  Uiso   1.00
C82    C     0.00308   0.48488   0.61024   0.00000  Uiso   1.00
C83    C     0.00303   0.51544   0.61031   0.00000  Uiso   1.00
C84    C     0.00300   0.53149   0.66284   0.00000  Uiso   1.00
C85    C     0.00328   0.32941   0.93788   0.00000  Uiso   1.00
C86    C     0.00331   0.30258   0.96873   0.00000  Uiso   1.00
C87    C     0.00334   0.30258   0.03076   0.00000  Uiso   1.00
C88    C     0.00334   0.32941   0.06172   0.00000  Uiso   1.00
C89    C     0.00314   0.46882   0.33748   0.00000  Uiso   1.00
C90    C     0.00310   0.48488   0.39001   0.00000  Uiso   1.00
C91    C     0.00305   0.51544   0.39008   0.00000  Uiso   1.00
C92    C     0.00304   0.53149   0.33761   0.00000  Uiso   1.00
C93    C     0.00285   0.67090   0.93860   0.00000  Uiso   1.00
C94    C     0.00285   0.69774   0.96956   0.00000  Uiso   1.00
C95    C     0.00288   0.69774   0.03158   0.00000  Uiso   1.00
C96    C     0.00290   0.67091   0.06243   0.00000  Uiso   1.00
H25    H     0.00314   0.44474   0.66148   0.00000  Uiso   1.00
O9     O     0.00310   0.47136   0.55575   0.00000  Uiso   1.00
O10    O     0.00301   0.52896   0.55587   0.00000  Uiso   1.00
H26    H     0.00296   0.55558   0.66172   0.00000  Uiso   1.00
H27    H     0.00326   0.32904   0.89029   0.00000  Uiso   1.00
O11    O     0.00329   0.27555   0.93856   0.00000  Uiso   1.00
O12    O     0.00337   0.27555   0.06082   0.00000  Uiso   1.00
H28    H     0.00335   0.32904   0.10931   0.00000  Uiso   1.00
H29    H     0.00317   0.44474   0.33860   0.00000  Uiso   1.00
O13    O     0.00312   0.47136   0.44445   0.00000  Uiso   1.00
O14    O     0.00302   0.52896   0.44457   0.00000  Uiso   1.00
H30    H     0.00300   0.55558   0.33884   0.00000  Uiso   1.00
H31    H     0.00283   0.67127   0.89101   0.00000  Uiso   1.00
O15    O     0.00283   0.72476   0.93949   0.00000  Uiso   1.00
O16    O     0.00291   0.72477   0.06175   0.00000  Uiso   1.00
H32    H     0.00292   0.67128   0.11002   0.00000  Uiso   1.00
Ni2    Ni    0.00307   0.50016   0.00016   0.00000  Uiso   1.00
C97    C     0.47148   0.00012   0.77005   0.00000  Uiso   1.00
C98    C     0.48716   0.00010   0.71641   0.00000  Uiso   1.00
C99    C     0.51905   0.00005   0.71648   0.00000  Uiso   1.00
C100   C     0.53473   0.00003   0.77018   0.00000  Uiso   1.00
C101   C     0.51821   0.00005   0.82197   0.00000  Uiso   1.00
C102   C     0.48800   0.00010   0.82191   0.00000  Uiso   1.00
C103   C     0.47936   0.00012   0.87990   0.00000  Uiso   1.00
N17    N     0.50311   0.00009   0.91689   0.00000  Uiso   1.00
C104   C     0.52685   0.00005   0.88000   0.00000  Uiso   1.00
N18    N     0.55533   0.00001   0.89707   0.00000  Uiso   1.00
C105   C     0.56394   0.00000   0.95334   0.00000  Uiso   1.00
N19    N     0.54524   0.00004   0.00021   0.00000  Uiso   1.00
C106   C     0.56394   0.00002   0.04715   0.00000  Uiso   1.00
C107   C     0.59331  -0.00002   0.03014   0.00000  Uiso   1.00
C108   C     0.59331  -0.00003   0.97048   0.00000  Uiso   1.00
N20    N     0.50311   0.00012   0.08334   0.00000  Uiso   1.00
C109   C     0.52685   0.00009   0.12033   0.00000  Uiso   1.00
N21    N     0.55534   0.00005   0.10339   0.00000  Uiso   1.00
C110   C     0.51822   0.00011   0.17832   0.00000  Uiso   1.00
C111   C     0.48800   0.00015   0.17826   0.00000  Uiso   1.00
C112   C     0.47936   0.00016   0.12023   0.00000  Uiso   1.00
C113   C     0.61956  -0.00007   0.93794   0.00000  Uiso   1.00
C114   C     0.64674  -0.00008   0.96897   0.00000  Uiso   1.00
C115   C     0.64674  -0.00006   0.03185   0.00000  Uiso   1.00
C116   C     0.61956  -0.00003   0.06278   0.00000  Uiso   1.00
C117   C     0.47148   0.00018   0.23005   0.00000  Uiso   1.00
C118   C     0.48716   0.00015   0.28376   0.00000  Uiso   1.00
C119   C     0.51906   0.00010   0.28383   0.00000  Uiso   1.00
C120   C     0.53474   0.00008   0.23019   0.00000  Uiso   1.00
N22    N     0.46097   0.00018   1.00003   0.00000  Uiso   1.00
C121   C     0.44227   0.00021   0.04689   0.00000  Uiso   1.00
N23    N     0.45088   0.00021   0.10317   0.00000  Uiso   1.00
C122   C     0.41290   0.00026   0.02976   0.00000  Uiso   1.00
C123   C     0.41290   0.00024   0.97010   0.00000  Uiso   1.00
C124   C     0.44227   0.00019   0.95309   0.00000  Uiso   1.00
C125   C     0.38665   0.00027   0.93745   0.00000  Uiso   1.00
C126   C     0.35947   0.00031   0.96838   0.00000  Uiso   1.00
C127   C     0.35947   0.00033   0.03126   0.00000  Uiso   1.00
C128   C     0.38666   0.00030   0.06230   0.00000  Uiso   1.00
N24    N     0.45088   0.00017   0.89685   0.00000  Uiso   1.00
H33    H     0.44739   0.00016   0.77128   0.00000  Uiso   1.00
H34    H     0.55882  -0.00001   0.77152   0.00000  Uiso   1.00
H35    H     0.61890  -0.00008   0.89036   0.00000  Uiso   1.00
H36    H     0.61891  -0.00002   0.11036   0.00000  Uiso   1.00
H37    H     0.44739   0.00021   0.22872   0.00000  Uiso   1.00
H38    H     0.55882   0.00004   0.22895   0.00000  Uiso   1.00
H39    H     0.38731   0.00025   0.88988   0.00000  Uiso   1.00
H40    H     0.38731   0.00032   0.10987   0.00000  Uiso   1.00
C129   C     0.33236   0.00032   0.93784   0.00000  Uiso   1.00
C130   C     0.30552   0.00035   0.96869   0.00000  Uiso   1.00
C131   C     0.30553   0.00038   0.03072   0.00000  Uiso   1.00
C132   C     0.33236   0.00037   0.06168   0.00000  Uiso   1.00
C133   C     0.47177   0.00013   0.66266   0.00000  Uiso   1.00
C134   C     0.48782   0.00011   0.61020   0.00000  Uiso   1.00
C135   C     0.51838   0.00006   0.61027   0.00000  Uiso   1.00
C136   C     0.53444   0.00003   0.66280   0.00000  Uiso   1.00
C137   C     0.67385  -0.00011   0.93855   0.00000  Uiso   1.00
C138   C     0.70068  -0.00011   0.96951   0.00000  Uiso   1.00
C139   C     0.70069  -0.00007   0.03153   0.00000  Uiso   1.00
C140   C     0.67385  -0.00006   0.06239   0.00000  Uiso   1.00
C141   C     0.47177   0.00017   0.33743   0.00000  Uiso   1.00
C142   C     0.48783   0.00014   0.38997   0.00000  Uiso   1.00
C143   C     0.51839   0.00009   0.39003   0.00000  Uiso   1.00
C144   C     0.53444   0.00007   0.33757   0.00000  Uiso   1.00
H41    H     0.33199   0.00030   0.89025   0.00000  Uiso   1.00
O17    O     0.27850   0.00033   0.93853   0.00000  Uiso   1.00
O18    O     0.27850   0.00041   0.06078   0.00000  Uiso   1.00
H42    H     0.33199   0.00039   0.10927   0.00000  Uiso   1.00
H43    H     0.44769   0.00017   0.66144   0.00000  Uiso   1.00
O19    O     0.47430   0.00014   0.55570   0.00000  Uiso   1.00
O20    O     0.53191   0.00004   0.55583   0.00000  Uiso   1.00
H44    H     0.55852  -0.00000   0.66168   0.00000  Uiso   1.00
H45    H     0.67422  -0.00013   0.89096   0.00000  Uiso   1.00
O21    O     0.72771  -0.00012   0.93945   0.00000  Uiso   1.00
O22    O     0.72772  -0.00005   0.06170   0.00000  Uiso   1.00
H46    H     0.67423  -0.00004   0.10998   0.00000  Uiso   1.00
H47    H     0.44769   0.00021   0.33855   0.00000  Uiso   1.00
O23    O     0.47430   0.00015   0.44441   0.00000  Uiso   1.00
O24    O     0.53191   0.00006   0.44453   0.00000  Uiso   1.00
H48    H     0.55853   0.00003   0.33880   0.00000  Uiso   1.00
Ni3    Ni    0.50311   0.00011   0.00012   0.00000  Uiso   1.00
Zn1    Zn    0.00332   0.25016  -0.00036   0.00000  Uiso   1.00
Zn2    Zn    0.75311  -0.00007   0.00062   0.00000  Uiso   1.00
Zn3    Zn    0.00288   0.75016   0.00067   0.00000  Uiso   1.00
Zn4    Zn    0.25310   0.00036  -0.00040   0.00000  Uiso   1.00
Cu1    Cu    0.00306   0.50016   0.50016   0.00000  Uiso   1.00
Cu2    Cu    0.50310   0.00009   0.50012   0.00000  Uiso   1.00
loop_
_geom_bond_atom_site_label_1
_geom_bond_atom_site_label_2
_geom_bond_distance
_geom_bond_site_symmetry_2
_ccdc_geom_bond_type
C1     C2      1.412   .     A
C1     C6      1.394   .     A
C1     H1      1.084   .     S
C2     C3      1.432   1_655 A
C2     C37     1.403   .     A
C3     C2      1.432   1_455 A
C3     C4      1.411   .     A
C3     C40     1.403   .     A
C4     C5      1.394   .     A
C4     H2      1.084   .     S
C5     C6      1.358   1_455 A
C5     C8      1.377   .     A
C6     C5      1.358   1_655 A
C6     C7      1.377   .     A
C7     N1      1.359   1_655 A
C7     N8      1.338   .     A
N1     C7      1.359   1_455 A
N1     C8      1.359   .     A
N1     Ni1     1.895   1_565 S
C8     N2      1.338   .     A
N2     C9      1.338   .     A
C9     N3      1.359   1_565 A
C9     C12     1.377   .     A
N3     C9      1.359   1_545 A
N3     C10     1.359   .     A
N3     Ni1     1.895   .     S
C10    C11     1.377   .     A
C10    N5      1.338   .     A
C11    C12     1.358   1_545 A
C11    C20     1.394   .     A
C12    C11     1.358   1_565 A
C12    C17     1.394   .     A
N4     C13     1.359   .     A
N4     C16     1.359   1_455 A
N4     Ni1     1.895   .     S
C13    N5      1.338   .     A
C13    C14     1.377   .     A
C14    C15     1.358   1_455 A
C14    C24     1.394   .     A
C15    C14     1.358   1_655 A
C15    C16     1.377   .     A
C15    C21     1.394   .     A
C16    N4      1.359   1_655 A
C16    N7      1.338   .     A
C17    C18     1.411   .     A
C17    H3      1.084   .     S
C18    C19     1.432   1_565 A
C18    C41     1.403   .     A
C19    C18     1.432   1_545 A
C19    C20     1.412   .     A
C19    C44     1.403   .     A
C20    H4      1.084   .     S
C21    C22     1.411   .     A
C21    H5      1.084   .     S
C22    C23     1.432   1_655 A
C22    C45     1.403   .     A
C23    C22     1.432   1_455 A
C23    C24     1.412   .     A
C23    C48     1.403   .     A
C24    H6      1.084   .     S
N6     C25     1.359   .     A
N6     C28     1.359   1_545 A
N6     Ni1     1.895   1_655 S
C25    N7      1.338   .     A
C25    C26     1.377   .     A
C26    C27     1.358   1_545 A
C26    C32     1.394   .     A
C27    C26     1.358   1_565 A
C27    C28     1.377   .     A
C27    C29     1.394   .     A
C28    N6      1.359   1_565 A
C28    N8      1.338   .     A
C29    C30     1.412   .     A
C29    H7      1.084   .     S
C30    C31     1.432   1_565 A
C30    C33     1.403   .     A
C31    C30     1.432   1_545 A
C31    C32     1.411   .     A
C31    C36     1.403   .     A
C32    H8      1.084   .     S
C33    C34     1.397   .     A
C33    H9      1.084   .     S
C34    C35     1.412   1_565 A
C34    O1      1.395   .     S
C35    C34     1.412   1_545 A
C35    C36     1.397   .     A
C35    O2      1.395   .     S
C36    H10     1.084   .     S
C37    C38     1.397   .     A
C37    H11     1.084   .     S
C38    C39     1.412   1_655 A
C38    O3      1.395   .     S
C39    C38     1.412   1_455 A
C39    C40     1.397   .     A
C39    O4      1.395   .     S
C40    H12     1.084   .     S
C41    C42     1.397   .     A
C41    H13     1.084   .     S
C42    C43     1.412   1_565 A
C42    O5      1.395   .     S
C43    C42     1.412   1_545 A
C43    C44     1.397   .     A
C43    O6      1.395   .     S
C44    H14     1.084   .     S
C45    C46     1.397   .     A
C45    H15     1.084   .     S
C46    C47     1.412   1_655 A
C46    O7      1.395   .     S
C47    C46     1.412   1_455 A
C47    C48     1.397   .     A
C47    O8      1.395   .     S
C48    H16     1.084   .     S
O1     Zn2     1.800   1_565 S
O2     Zn2     1.800   .     S
O3     Zn3     1.800   1_655 S
O4     Zn3     1.800   .     S
O5     Zn4     1.800   1_565 S
O6     Zn4     1.800   .     S
O7     Zn1     1.800   1_655 S
O8     Zn1     1.800   .     S
Ni1    N6      1.895   1_455 S
Ni1    N1      1.895   1_545 S
C49    C50     1.412   .     A
C49    C54     1.394   .     A
C49    H17     1.084   .     S
C50    C51     1.432   1_556 A
C50    C85     1.403   .     A
C51    C50     1.432   1_554 A
C51    C52     1.412   .     A
C51    C88     1.403   .     A
C52    C53     1.394   .     A
C52    H18     1.084   .     S
C53    C54     1.358   1_554 A
C53    C56     1.377   .     A
C54    C53     1.358   1_556 A
C54    C55     1.377   .     A
C55    N9      1.359   1_556 A
C55    N16     1.338   .     A
N9     C55     1.359   1_554 A
N9     C56     1.359   .     A
N9     Ni2     1.895   .     S
C56    N10     1.338   .     A
N10    C57     1.338   .     A
C57    N11     1.359   .     A
C57    C60     1.377   .     A
N11    C58     1.359   .     A
N11    Ni2     1.895   .     S
C58    C59     1.377   .     A
C58    N13     1.338   .     A
C59    C60     1.359   .     A
C59    C68     1.394   .     A
C60    C65     1.394   .     A
N12    C61     1.359   .     A
N12    C64     1.359   1_554 A
N12    Ni2     1.895   .     S
C61    N13     1.338   .     A
C61    C62     1.377   .     A
C62    C63     1.358   1_554 A
C62    C72     1.394   .     A
C63    C62     1.358   1_556 A
C63    C64     1.377   .     A
C63    C69     1.394   .     A
C64    N12     1.359   1_556 A
C64    N15     1.338   .     A
C65    C66     1.411   .     A
C65    H19     1.084   .     S
C66    C67     1.435   .     A
C66    C89     1.405   .     A
C67    C68     1.411   .     A
C67    C92     1.405   .     A
C68    H20     1.084   .     S
C69    C70     1.412   .     A
C69    H21     1.084   .     S
C70    C71     1.432   1_556 A
C70    C93     1.403   .     A
C71    C70     1.432   1_554 A
C71    C72     1.412   .     A
C71    C96     1.403   .     A
C72    H22     1.084   .     S
N14    C73     1.359   .     A
N14    C76     1.359   .     A
N14    Ni2     1.895   1_556 S
C73    N15     1.338   .     A
C73    C74     1.377   .     A
C74    C75     1.359   .     A
C74    C80     1.394   .     A
C75    C76     1.377   .     A
C75    C77     1.394   .     A
C76    N16     1.338   .     A
C77    C78     1.411   .     A
C77    H23     1.084   .     S
C78    C79     1.435   .     A
C78    C81     1.405   .     A
C79    C80     1.411   .     A
C79    C84     1.405   .     A
C80    H24     1.084   .     S
C81    C82     1.396   .     A
C81    H25     1.083   .     S
C82    C83     1.374   .     A
C82    O9      1.381   .     S
C83    C84     1.396   .     A
C83    O10     1.381   .     S
C84    H26     1.083   .     S
C85    C86     1.397   .     A
C85    H27     1.084   .     S
C86    C87     1.412   1_556 A
C86    O11     1.395   .     S
C87    C86     1.412   1_554 A
C87    C88     1.397   .     A
C87    O12     1.395   .     S
C88    H28     1.084   .     S
C89    C90     1.396   .     A
C89    H29     1.083   .     S
C90    C91     1.374   .     A
C90    O13     1.381   .     S
C91    C92     1.396   .     A
C91    O14     1.381   .     S
C92    H30     1.083   .     S
C93    C94     1.397   .     A
C93    H31     1.084   .     S
C94    C95     1.412   1_556 A
C94    O15     1.395   .     S
C95    C94     1.412   1_554 A
C95    C96     1.397   .     A
C95    O16     1.395   .     S
C96    H32     1.084   .     S
O9     Cu1     1.812   .     S
O10    Cu1     1.812   .     S
O11    Zn1     1.800   1_556 S
O12    Zn1     1.800   .     S
O13    Cu1     1.812   .     S
O14    Cu1     1.812   .     S
O15    Zn3     1.800   1_556 S
O16    Zn3     1.800   .     S
Ni2    N14     1.895   1_554 S
C97    C98     1.411   .     A
C97    C102    1.394   .     A
C97    H33     1.084   .     S
C98    C99     1.435   .     A
C98    C133    1.405   .     A
C99    C100    1.411   .     A
C99    C136    1.405   .     A
C100   C101    1.394   .     A
C100   H34     1.084   .     S
C101   C102    1.359   .     A
C101   C104    1.377   .     A
C102   C103    1.377   .     A
C103   N17     1.359   .     A
C103   N24     1.338   .     A
N17    C104    1.359   .     A
N17    Ni3     1.895   1_556 S
C104   N18     1.338   .     A
N18    C105    1.338   .     A
C105   N19     1.359   1_556 A
C105   C108    1.377   .     A
N19    C105    1.359   1_554 A
N19    C106    1.359   .     A
N19    Ni3     1.895   .     S
C106   C107    1.377   .     A
C106   N21     1.338   .     A
C107   C108    1.358   1_554 A
C107   C116    1.394   .     A
C108   C107    1.358   1_556 A
C108   C113    1.394   .     A
N20    C109    1.359   .     A
N20    C112    1.359   .     A
N20    Ni3     1.895   .     S
C109   N21     1.338   .     A
C109   C110    1.377   .     A
C110   C111    1.359   .     A
C110   C120    1.394   .     A
C111   C112    1.377   .     A
C111   C117    1.394   .     A
C112   N23     1.338   .     A
C113   C114    1.412   .     A
C113   H35     1.084   .     S
C114   C115    1.432   1_556 A
C114   C137    1.403   .     A
C115   C114    1.432   1_554 A
C115   C116    1.412   .     A
C115   C140    1.403   .     A
C116   H36     1.084   .     S
C117   C118    1.411   .     A
C117   H37     1.084   .     S
C118   C119    1.435   .     A
C118   C141    1.405   .     A
C119   C120    1.411   .     A
C119   C144    1.405   .     A
C120   H38     1.084   .     S
N22    C121    1.359   1_556 A
N22    C124    1.359   .     A
N22    Ni3     1.895   1_556 S
C121   N22     1.359   1_554 A
C121   N23     1.338   .     A
C121   C122    1.377   .     A
C122   C123    1.358   1_554 A
C122   C128    1.394   .     A
C123   C122    1.358   1_556 A
C123   C124    1.377   .     A
C123   C125    1.394   .     A
C124   N24     1.338   .     A
C125   C126    1.412   .     A
C125   H39     1.084   .     S
C126   C127    1.432   1_556 A
C126   C129    1.403   .     A
C127   C126    1.432   1_554 A
C127   C128    1.412   .     A
C127   C132    1.403   .     A
C128   H40     1.084   .     S
C129   C130    1.397   .     A
C129   H41     1.084   .     S
C130   C131    1.412   1_556 A
C130   O17     1.395   .     S
C131   C130    1.412   1_554 A
C131   C132    1.397   .     A
C131   O18     1.395   .     S
C132   H42     1.084   .     S
C133   C134    1.396   .     A
C133   H43     1.083   .     S
C134   C135    1.374   .     A
C134   O19     1.381   .     S
C135   C136    1.396   .     A
C135   O20     1.381   .     S
C136   H44     1.083   .     S
C137   C138    1.397   .     A
C137   H45     1.084   .     S
C138   C139    1.412   1_556 A
C138   O21     1.395   .     S
C139   C138    1.412   1_554 A
C139   C140    1.397   .     A
C139   O22     1.395   .     S
C140   H46     1.084   .     S
C141   C142    1.396   .     A
C141   H47     1.083   .     S
C142   C143    1.374   .     A
C142   O23     1.381   .     S
C143   C144    1.396   .     A
C143   O24     1.381   .     S
C144   H48     1.083   .     S
O17    Zn4     1.800   1_556 S
O18    Zn4     1.800   .     S
O19    Cu2     1.812   .     S
O20    Cu2     1.812   .     S
O21    Zn2     1.800   1_556 S
O22    Zn2     1.800   .     S
O23    Cu2     1.812   .     S
O24    Cu2     1.812   .     S
Ni3    N17     1.895   1_554 S
Ni3    N22     1.895   1_554 S
Zn1    O7      1.800   1_455 S
Zn1    O11     1.800   1_554 S
Zn2    O21     1.800   1_554 S
Zn2    O1      1.800   1_545 S
Zn3    O15     1.800   1_554 S
Zn3    O3      1.800   1_455 S
Zn4    O5      1.800   1_545 S
Zn4    O17     1.800   1_554 S
