data_mou-PcM_O-Zntet
_audit_creation_date              2021-11-06
_audit_creation_method            'Materials Studio'
_symmetry_space_group_name_H-M    'P1'
_symmetry_Int_Tables_number       1
_symmetry_cell_setting            triclinic
loop_
_symmetry_equiv_pos_as_xyz
  x,y,z
_cell_length_a                    53.1528
_cell_length_b                    53.1528
_cell_length_c                    17.9089
_cell_angle_alpha                 89.9986
_cell_angle_beta                  89.9946
_cell_angle_gamma                 90.0006
loop_
_atom_site_label
_atom_site_type_symbol
_atom_site_fract_x
_atom_site_fract_y
_atom_site_fract_z
_atom_site_U_iso_or_equiv
_atom_site_adp_type
_atom_site_occupancy
C1     C     0.97348   0.09916   1.00008   0.00000  Uiso   1.00
C2     C     0.98682   0.12201   1.00009   0.00000  Uiso   1.00
C3     C     0.01366   0.12201   1.00010   0.00000  Uiso   1.00
C4     C     0.02701   0.09917   0.00009   0.00000  Uiso   1.00
C5     C     0.01304   0.07692   1.00008   0.00000  Uiso   1.00
C6     C     0.98745   0.07692   1.00007   0.00000  Uiso   1.00
C7     C     0.98015   0.05207   1.00006   0.00000  Uiso   1.00
N1     N     0.00024   0.03625   1.00006   0.00000  Uiso   1.00
C8     C     0.02034   0.05207   0.00007   0.00000  Uiso   1.00
N2     N     0.04444   0.04479   0.00010   0.00000  Uiso   1.00
C9     C     0.05173   0.02069   0.00011   0.00000  Uiso   1.00
N3     N     0.03590   0.00060   0.00009   0.00000  Uiso   1.00
C10    C     0.05172   0.98050   1.00011   0.00000  Uiso   1.00
C11    C     0.07657   0.98779   0.00014   0.00000  Uiso   1.00
C12    C     0.07658   0.01339   0.00014   0.00000  Uiso   1.00
N4     N     0.00024   0.96494   1.00005   0.00000  Uiso   1.00
C13    C     0.02034   0.94911   1.00006   0.00000  Uiso   1.00
N5     N     0.04444   0.95640   1.00009   0.00000  Uiso   1.00
C14    C     0.01304   0.92426   1.00005   0.00000  Uiso   1.00
C15    C     0.98744   0.92427   0.00003   0.00000  Uiso   1.00
C16    C     0.98015   0.94911   0.00003   0.00000  Uiso   1.00
C17    C     0.09882   0.02735   0.00017   0.00000  Uiso   1.00
C18    C     0.12167   0.01400   0.00020   0.00000  Uiso   1.00
C19    C     0.12166   0.98716   0.00020   0.00000  Uiso   1.00
C20    C     0.09881   0.97383   0.00017   0.00000  Uiso   1.00
C21    C     0.97348   0.90203   0.00003   0.00000  Uiso   1.00
C22    C     0.98682   0.87918   0.00005   0.00000  Uiso   1.00
C23    C     0.01366   0.87917   1.00006   0.00000  Uiso   1.00
C24    C     0.02700   0.90202   1.00007   0.00000  Uiso   1.00
N6     N     0.96459   0.00060   1.00004   0.00000  Uiso   1.00
C25    C     0.94876   0.98050   0.00002   0.00000  Uiso   1.00
N7     N     0.95605   0.95640   0.00002   0.00000  Uiso   1.00
C26    C     0.92392   0.98779   0.00003   0.00000  Uiso   1.00
C27    C     0.92391   0.01339   1.00004   0.00000  Uiso   1.00
C28    C     0.94876   0.02069   1.00004   0.00000  Uiso   1.00
C29    C     0.90167   0.02735   1.00005   0.00000  Uiso   1.00
C30    C     0.87882   0.01400   0.00005   0.00000  Uiso   1.00
C31    C     0.87883   0.98716   0.00004   0.00000  Uiso   1.00
C32    C     0.90168   0.97383   0.00003   0.00000  Uiso   1.00
N8     N     0.95605   0.04479   1.00005   0.00000  Uiso   1.00
H1     H     0.95312   0.09886   1.00008   0.00000  Uiso   1.00
O1     O     0.97397   0.14489   1.00010   0.00000  Uiso   1.00
O2     O     0.02651   0.14490   0.00011   0.00000  Uiso   1.00
H2     H     0.04737   0.09887   0.00010   0.00000  Uiso   1.00
H3     H     0.09852   0.04772   0.00017   0.00000  Uiso   1.00
O3     O     0.14455   0.02684   0.00022   0.00000  Uiso   1.00
O4     O     0.14454   0.97431   0.00022   0.00000  Uiso   1.00
H4     H     0.09850   0.95346   0.00017   0.00000  Uiso   1.00
H5     H     0.95311   0.90233   0.00001   0.00000  Uiso   1.00
O5     O     0.97397   0.85630   0.00005   0.00000  Uiso   1.00
O6     O     0.02650   0.85629   1.00008   0.00000  Uiso   1.00
H6     H     0.04737   0.90232   1.00009   0.00000  Uiso   1.00
H7     H     0.90197   0.04772   1.00006   0.00000  Uiso   1.00
O7     O     0.85593   0.02684   0.00007   0.00000  Uiso   1.00
O8     O     0.85595   0.97431   0.00005   0.00000  Uiso   1.00
H8     H     0.90199   0.95346   0.00002   0.00000  Uiso   1.00
Ni1    Ni    0.00024   0.00059   1.00006   0.00000  Uiso   1.00
C33    C     0.00009   0.43078   0.92071   0.00000  Uiso   1.00
C34    C     0.00008   0.45342   0.96134   0.00000  Uiso   1.00
C35    C     0.00008   0.45342   0.03886   0.00000  Uiso   1.00
C36    C     0.00008   0.43078   0.07950   0.00000  Uiso   1.00
C37    C     0.00009   0.40846   0.03817   0.00000  Uiso   1.00
C38    C     0.00009   0.40846   0.96204   0.00000  Uiso   1.00
C39    C     0.00009   0.38361   0.94042   0.00000  Uiso   1.00
N9     N     0.00010   0.36779   0.00011   0.00000  Uiso   1.00
C40    C     0.00009   0.38361   0.05979   0.00000  Uiso   1.00
N10    N     0.00009   0.37632   0.13130   0.00000  Uiso   1.00
C41    C     0.00010   0.35223   0.15291   0.00000  Uiso   1.00
N11    N     0.00012   0.33212   0.10596   0.00000  Uiso   1.00
C42    C     0.00013   0.31201   0.15290   0.00000  Uiso   1.00
C43    C     0.00012   0.31929   0.22665   0.00000  Uiso   1.00
C44    C     0.00010   0.34494   0.22665   0.00000  Uiso   1.00
N12    N     0.00014   0.29646   0.00011   0.00000  Uiso   1.00
C45    C     0.00015   0.28064   0.05975   0.00000  Uiso   1.00
N13    N     0.00014   0.28792   0.13127   0.00000  Uiso   1.00
C46    C     0.00018   0.25579   0.03809   0.00000  Uiso   1.00
C47    C     0.00018   0.25579   0.96213   0.00000  Uiso   1.00
C48    C     0.00015   0.28064   0.94047   0.00000  Uiso   1.00
C49    C     0.00009   0.35886   0.29291   0.00000  Uiso   1.00
C50    C     0.00009   0.34517   0.36010   0.00000  Uiso   1.00
C51    C     0.00010   0.31905   0.36010   0.00000  Uiso   1.00
C52    C     0.00012   0.30536   0.29290   0.00000  Uiso   1.00
C53    C     0.00020   0.23355   0.92068   0.00000  Uiso   1.00
C54    C     0.00022   0.21070   0.96028   0.00000  Uiso   1.00
C55    C     0.00021   0.21070   0.03994   0.00000  Uiso   1.00
C56    C     0.00019   0.23355   0.07954   0.00000  Uiso   1.00
N14    N     0.00012   0.33212   0.89425   0.00000  Uiso   1.00
C57    C     0.00013   0.31201   0.84731   0.00000  Uiso   1.00
N15    N     0.00015   0.28792   0.86895   0.00000  Uiso   1.00
C58    C     0.00012   0.31929   0.77357   0.00000  Uiso   1.00
C59    C     0.00010   0.34494   0.77356   0.00000  Uiso   1.00
C60    C     0.00010   0.35223   0.84729   0.00000  Uiso   1.00
C61    C     0.00009   0.35887   0.70729   0.00000  Uiso   1.00
C62    C     0.00009   0.34517   0.64010   0.00000  Uiso   1.00
C63    C     0.00011   0.31905   0.64011   0.00000  Uiso   1.00
C64    C     0.00012   0.30537   0.70731   0.00000  Uiso   1.00
N16    N     0.00009   0.37633   0.86891   0.00000  Uiso   1.00
H9     H     0.00009   0.43068   0.86027   0.00000  Uiso   1.00
O9     O     0.00008   0.47677   0.92759   0.00000  Uiso   1.00
O10    O     0.00008   0.47677   0.07262   0.00000  Uiso   1.00
H10    H     0.00009   0.43068   0.13994   0.00000  Uiso   1.00
H11    H     0.00007   0.37923   0.29262   0.00000  Uiso   1.00
O11    O     0.00008   0.35654   0.42941   0.00000  Uiso   1.00
O12    O     0.00011   0.30768   0.42941   0.00000  Uiso   1.00
H12    H     0.00013   0.28500   0.29260   0.00000  Uiso   1.00
H13    H     0.00020   0.23385   0.86024   0.00000  Uiso   1.00
O13    O     0.00023   0.18782   0.92215   0.00000  Uiso   1.00
O14    O     0.00023   0.18781   0.07807   0.00000  Uiso   1.00
H14    H     0.00019   0.23385   0.13998   0.00000  Uiso   1.00
H15    H     0.00008   0.37923   0.70759   0.00000  Uiso   1.00
O15    O     0.00008   0.35654   0.57079   0.00000  Uiso   1.00
O16    O     0.00011   0.30768   0.57081   0.00000  Uiso   1.00
H16    H     0.00013   0.28500   0.70762   0.00000  Uiso   1.00
Ni2    Ni    0.00011   0.33213   0.00010   0.00000  Uiso   1.00
C65    C     0.69547   0.00016   0.70734   0.00000  Uiso   1.00
C66    C     0.68178   0.00012   0.64014   0.00000  Uiso   1.00
C67    C     0.65566   0.00007   0.64014   0.00000  Uiso   1.00
C68    C     0.64197   0.00006   0.70734   0.00000  Uiso   1.00
C69    C     0.65589   0.00010   0.77360   0.00000  Uiso   1.00
C70    C     0.68154   0.00015   0.77360   0.00000  Uiso   1.00
C71    C     0.68883   0.00018   0.84734   0.00000  Uiso   1.00
N17    N     0.66871   0.00015   0.89428   0.00000  Uiso   1.00
C72    C     0.64860   0.00010   0.84734   0.00000  Uiso   1.00
N18    N     0.62451   0.00007   0.86896   0.00000  Uiso   1.00
C73    C     0.61723   0.00007   0.94047   0.00000  Uiso   1.00
N19    N     0.63304   0.00009   0.00015   0.00000  Uiso   1.00
C74    C     0.61723   0.00007   0.05984   0.00000  Uiso   1.00
C75    C     0.59238   0.00005   0.03823   0.00000  Uiso   1.00
C76    C     0.59238   0.00005   0.96210   0.00000  Uiso   1.00
N20    N     0.66871   0.00015   0.10600   0.00000  Uiso   1.00
C77    C     0.64861   0.00010   0.15296   0.00000  Uiso   1.00
N21    N     0.62451   0.00008   0.13135   0.00000  Uiso   1.00
C78    C     0.65589   0.00010   0.22669   0.00000  Uiso   1.00
C79    C     0.68154   0.00015   0.22668   0.00000  Uiso   1.00
C80    C     0.68883   0.00018   0.15293   0.00000  Uiso   1.00
C81    C     0.57005   0.00005   0.92078   0.00000  Uiso   1.00
C82    C     0.54741   0.00005   0.96141   0.00000  Uiso   1.00
C83    C     0.54741   0.00005   0.03893   0.00000  Uiso   1.00
C84    C     0.57005   0.00005   0.07956   0.00000  Uiso   1.00
C85    C     0.69547   0.00017   0.29293   0.00000  Uiso   1.00
C86    C     0.68178   0.00013   0.36013   0.00000  Uiso   1.00
C87    C     0.65566   0.00007   0.36014   0.00000  Uiso   1.00
C88    C     0.64197   0.00006   0.29296   0.00000  Uiso   1.00
N22    N     0.70437   0.00023   0.00013   0.00000  Uiso   1.00
C89    C     0.72020   0.00028   0.05977   0.00000  Uiso   1.00
N23    N     0.71292   0.00025   0.13129   0.00000  Uiso   1.00
C90    C     0.74505   0.00035   0.03810   0.00000  Uiso   1.00
C91    C     0.74505   0.00036   0.96213   0.00000  Uiso   1.00
C92    C     0.72020   0.00028   0.94048   0.00000  Uiso   1.00
C93    C     0.76729   0.00042   0.92068   0.00000  Uiso   1.00
C94    C     0.79014   0.00049   0.96027   0.00000  Uiso   1.00
C95    C     0.79014   0.00049   0.03992   0.00000  Uiso   1.00
C96    C     0.76729   0.00042   0.07953   0.00000  Uiso   1.00
N24    N     0.71292   0.00025   0.86896   0.00000  Uiso   1.00
H17    H     0.71583   0.00020   0.70764   0.00000  Uiso   1.00
O17    O     0.69316   0.00013   0.57083   0.00000  Uiso   1.00
O18    O     0.64429   0.00004   0.57084   0.00000  Uiso   1.00
H18    H     0.62161   0.00002   0.70764   0.00000  Uiso   1.00
H19    H     0.57016   0.00005   0.86034   0.00000  Uiso   1.00
O19    O     0.52406   0.00005   0.92767   0.00000  Uiso   1.00
O20    O     0.52406   0.00005   0.07269   0.00000  Uiso   1.00
H20    H     0.57015   0.00006   0.14000   0.00000  Uiso   1.00
H21    H     0.71584   0.00021   0.29262   0.00000  Uiso   1.00
O21    O     0.69316   0.00013   0.42944   0.00000  Uiso   1.00
O22    O     0.64429   0.00004   0.42946   0.00000  Uiso   1.00
H22    H     0.62161   0.00002   0.29267   0.00000  Uiso   1.00
H23    H     0.76699   0.00042   0.86023   0.00000  Uiso   1.00
O23    O     0.81302   0.00055   0.92213   0.00000  Uiso   1.00
O24    O     0.81302   0.00054   0.07804   0.00000  Uiso   1.00
H24    H     0.76699   0.00042   0.13998   0.00000  Uiso   1.00
Ni3    Ni    0.66871   0.00016   0.00014   0.00000  Uiso   1.00
C97    C     0.00009   0.57040   0.07949   0.00000  Uiso   1.00
C98    C     0.00008   0.54776   0.03886   0.00000  Uiso   1.00
C99    C     0.00008   0.54776   0.96134   0.00000  Uiso   1.00
C100   C     0.00008   0.57040   0.92071   0.00000  Uiso   1.00
C101   C     0.00009   0.59273   0.96204   0.00000  Uiso   1.00
C102   C     0.00009   0.59273   0.03817   0.00000  Uiso   1.00
C103   C     0.00009   0.61757   0.05979   0.00000  Uiso   1.00
N25    N     0.00010   0.63339   0.00010   0.00000  Uiso   1.00
C104   C     0.00009   0.61757   0.94041   0.00000  Uiso   1.00
N26    N     0.00009   0.62486   0.86890   0.00000  Uiso   1.00
C105   C     0.00010   0.64895   0.84729   0.00000  Uiso   1.00
N27    N     0.00012   0.66906   0.89424   0.00000  Uiso   1.00
C106   C     0.00013   0.68918   0.84730   0.00000  Uiso   1.00
C107   C     0.00012   0.68189   0.77355   0.00000  Uiso   1.00
C108   C     0.00010   0.65624   0.77355   0.00000  Uiso   1.00
N28    N     0.00014   0.70472   0.00009   0.00000  Uiso   1.00
C109   C     0.00015   0.72055   0.94045   0.00000  Uiso   1.00
N29    N     0.00015   0.71327   0.86893   0.00000  Uiso   1.00
C110   C     0.00018   0.74540   0.96211   0.00000  Uiso   1.00
C111   C     0.00017   0.74540   0.03807   0.00000  Uiso   1.00
C112   C     0.00015   0.72055   0.05974   0.00000  Uiso   1.00
C113   C     0.00009   0.64232   0.70729   0.00000  Uiso   1.00
C114   C     0.00009   0.65601   0.64009   0.00000  Uiso   1.00
C115   C     0.00010   0.68213   0.64010   0.00000  Uiso   1.00
C116   C     0.00012   0.69582   0.70729   0.00000  Uiso   1.00
C117   C     0.00019   0.76764   0.07951   0.00000  Uiso   1.00
C118   C     0.00021   0.79049   0.03991   0.00000  Uiso   1.00
C119   C     0.00022   0.79049   0.96025   0.00000  Uiso   1.00
C120   C     0.00020   0.76764   0.92066   0.00000  Uiso   1.00
N30    N     0.00012   0.66906   0.10595   0.00000  Uiso   1.00
C121   C     0.00013   0.68918   0.15289   0.00000  Uiso   1.00
N31    N     0.00014   0.71327   0.13125   0.00000  Uiso   1.00
C122   C     0.00012   0.68189   0.22663   0.00000  Uiso   1.00
C123   C     0.00010   0.65624   0.22664   0.00000  Uiso   1.00
C124   C     0.00010   0.64895   0.15291   0.00000  Uiso   1.00
C125   C     0.00009   0.64232   0.29291   0.00000  Uiso   1.00
C126   C     0.00009   0.65601   0.36010   0.00000  Uiso   1.00
C127   C     0.00011   0.68213   0.36009   0.00000  Uiso   1.00
C128   C     0.00012   0.69582   0.29289   0.00000  Uiso   1.00
N32    N     0.00009   0.62486   0.13130   0.00000  Uiso   1.00
H25    H     0.00009   0.57050   0.13994   0.00000  Uiso   1.00
O25    O     0.00008   0.52441   0.07262   0.00000  Uiso   1.00
O26    O     0.00008   0.52441   0.92759   0.00000  Uiso   1.00
H26    H     0.00009   0.57050   0.86027   0.00000  Uiso   1.00
H27    H     0.00007   0.62195   0.70759   0.00000  Uiso   1.00
O27    O     0.00008   0.64464   0.57079   0.00000  Uiso   1.00
O28    O     0.00010   0.69350   0.57079   0.00000  Uiso   1.00
H28    H     0.00013   0.71618   0.70760   0.00000  Uiso   1.00
H29    H     0.00019   0.76734   0.13996   0.00000  Uiso   1.00
O29    O     0.00022   0.81337   0.07803   0.00000  Uiso   1.00
O30    O     0.00023   0.81337   0.92212   0.00000  Uiso   1.00
H30    H     0.00020   0.76734   0.86021   0.00000  Uiso   1.00
H31    H     0.00008   0.62195   0.29261   0.00000  Uiso   1.00
O31    O     0.00008   0.64464   0.42940   0.00000  Uiso   1.00
O32    O     0.00011   0.69350   0.42940   0.00000  Uiso   1.00
H32    H     0.00013   0.71618   0.29258   0.00000  Uiso   1.00
Ni4    Ni    0.00011   0.66906   0.00009   0.00000  Uiso   1.00
C129   C     0.30501   0.00016   0.29302   0.00000  Uiso   1.00
C130   C     0.31870   0.00012   0.36021   0.00000  Uiso   1.00
C131   C     0.34482   0.00007   0.36021   0.00000  Uiso   1.00
C132   C     0.35851   0.00006   0.29302   0.00000  Uiso   1.00
C133   C     0.34459   0.00010   0.22676   0.00000  Uiso   1.00
C134   C     0.31894   0.00015   0.22676   0.00000  Uiso   1.00
C135   C     0.31166   0.00018   0.15301   0.00000  Uiso   1.00
N33    N     0.33177   0.00015   0.10607   0.00000  Uiso   1.00
C136   C     0.35188   0.00010   0.15302   0.00000  Uiso   1.00
N34    N     0.37598   0.00007   0.13140   0.00000  Uiso   1.00
C137   C     0.38326   0.00007   0.05989   0.00000  Uiso   1.00
N35    N     0.36744   0.00009   0.00021   0.00000  Uiso   1.00
C138   C     0.38326   0.00007   0.94052   0.00000  Uiso   1.00
C139   C     0.40811   0.00005   0.96213   0.00000  Uiso   1.00
C140   C     0.40811   0.00005   0.03826   0.00000  Uiso   1.00
N36    N     0.33177   0.00015   0.89436   0.00000  Uiso   1.00
C141   C     0.35188   0.00010   0.84740   0.00000  Uiso   1.00
N37    N     0.37598   0.00007   0.86901   0.00000  Uiso   1.00
C142   C     0.34459   0.00010   0.77366   0.00000  Uiso   1.00
C143   C     0.31894   0.00015   0.77368   0.00000  Uiso   1.00
C144   C     0.31166   0.00018   0.84742   0.00000  Uiso   1.00
C145   C     0.43043   0.00005   0.07959   0.00000  Uiso   1.00
C146   C     0.45307   0.00005   0.03895   0.00000  Uiso   1.00
C147   C     0.45307   0.00005   0.96143   0.00000  Uiso   1.00
C148   C     0.43043   0.00005   0.92080   0.00000  Uiso   1.00
C149   C     0.30502   0.00017   0.70742   0.00000  Uiso   1.00
C150   C     0.31871   0.00013   0.64022   0.00000  Uiso   1.00
C151   C     0.34482   0.00007   0.64021   0.00000  Uiso   1.00
C152   C     0.35852   0.00006   0.70739   0.00000  Uiso   1.00
N38    N     0.29611   0.00023   0.00022   0.00000  Uiso   1.00
C153   C     0.28029   0.00028   0.94058   0.00000  Uiso   1.00
N39    N     0.28757   0.00025   0.86906   0.00000  Uiso   1.00
C154   C     0.25544   0.00036   0.96225   0.00000  Uiso   1.00
C155   C     0.25544   0.00036   0.03821   0.00000  Uiso   1.00
C156   C     0.28029   0.00028   0.05987   0.00000  Uiso   1.00
C157   C     0.23320   0.00043   0.07966   0.00000  Uiso   1.00
C158   C     0.21035   0.00049   0.04006   0.00000  Uiso   1.00
C159   C     0.21035   0.00049   0.96040   0.00000  Uiso   1.00
C160   C     0.23320   0.00043   0.92080   0.00000  Uiso   1.00
N40    N     0.28757   0.00025   0.13139   0.00000  Uiso   1.00
H33    H     0.28465   0.00020   0.29272   0.00000  Uiso   1.00
O33    O     0.30733   0.00013   0.42952   0.00000  Uiso   1.00
O34    O     0.35619   0.00004   0.42951   0.00000  Uiso   1.00
H34    H     0.37888   0.00002   0.29271   0.00000  Uiso   1.00
H35    H     0.43033   0.00006   0.14003   0.00000  Uiso   1.00
O35    O     0.47642   0.00005   0.07270   0.00000  Uiso   1.00
O36    O     0.47643   0.00005   0.92767   0.00000  Uiso   1.00
H36    H     0.43033   0.00006   0.86036   0.00000  Uiso   1.00
H37    H     0.28465   0.00021   0.70774   0.00000  Uiso   1.00
O37    O     0.30733   0.00013   0.57092   0.00000  Uiso   1.00
O38    O     0.35620   0.00004   0.57090   0.00000  Uiso   1.00
H38    H     0.37888   0.00002   0.70769   0.00000  Uiso   1.00
H39    H     0.23350   0.00042   0.14010   0.00000  Uiso   1.00
O39    O     0.18746   0.00055   0.07819   0.00000  Uiso   1.00
O40    O     0.18747   0.00055   0.92228   0.00000  Uiso   1.00
H40    H     0.23350   0.00042   0.86036   0.00000  Uiso   1.00
Ni5    Ni    0.33178   0.00016   0.00021   0.00000  Uiso   1.00
Cu1    Cu    0.00008   0.50059   0.00010   0.00000  Uiso   1.00
Cu2    Cu    0.50024   0.00004   0.00018   0.00000  Uiso   1.00
Zn1    Zn    0.00024   0.16635   1.00011   0.00000  Uiso   1.00
Zn2    Zn    0.83448   0.00057   0.00007   0.00000  Uiso   1.00
Zn3    Zn    0.00023   0.83483   1.00007   0.00000  Uiso   1.00
Zn4    Zn    0.16601   0.00057   0.00023   0.00000  Uiso   1.00
Cu3    Cu    0.00009   0.33211   0.50011   0.00000  Uiso   1.00
Cu4    Cu    0.66872   0.00008   0.50014   0.00000  Uiso   1.00
Cu5    Cu    0.00009   0.66907   0.50009   0.00000  Uiso   1.00
Cu6    Cu    0.33176   0.00008   0.50021   0.00000  Uiso   1.00
loop_
_geom_bond_atom_site_label_1
_geom_bond_atom_site_label_2
_geom_bond_distance
_geom_bond_site_symmetry_2
_ccdc_geom_bond_type
C1     C2      1.406   .     A
C1     C6      1.396   .     A
C1     H1      1.083   .     S
C2     C3      1.427   1_655 A
C2     O1      1.395   .     S
C3     C2      1.427   1_455 A
C3     C4      1.406   1_556 A
C3     O2      1.395   1_556 S
C4     C3      1.406   1_554 A
C4     C5      1.396   1_554 A
C4     H2      1.083   .     S
C5     C4      1.396   1_556 A
C5     C6      1.361   1_455 A
C5     C8      1.377   1_556 A
C6     C5      1.361   1_655 A
C6     C7      1.377   .     A
C7     N1      1.360   1_655 A
C7     N8      1.338   .     A
N1     C7      1.360   1_455 A
N1     C8      1.360   1_556 A
N1     Ni1     1.895   .     S
C8     C5      1.377   1_554 A
C8     N1      1.360   1_554 A
C8     N2      1.338   .     A
N2     C9      1.338   .     A
C9     N3      1.360   .     A
C9     C12     1.377   .     A
N3     C10     1.360   1_544 A
N3     Ni1     1.895   1_554 S
C10    N3      1.360   1_566 A
C10    C11     1.377   1_556 A
C10    N5      1.338   .     A
C11    C10     1.377   1_554 A
C11    C12     1.361   1_565 A
C11    C20     1.396   .     A
C12    C11     1.361   1_545 A
C12    C17     1.396   .     A
N4     C13     1.360   .     A
N4     C16     1.360   1_456 A
N4     Ni1     1.895   1_565 S
C13    N5      1.338   .     A
C13    C14     1.377   .     A
C14    C15     1.361   1_456 A
C14    C24     1.396   .     A
C15    C14     1.361   1_654 A
C15    C16     1.377   .     A
C15    C21     1.396   .     A
C16    N4      1.360   1_654 A
C16    N7      1.338   .     A
C17    C18     1.407   .     A
C17    H3      1.083   .     S
C18    C19     1.427   1_545 A
C18    O3      1.395   .     S
C19    C18     1.427   1_565 A
C19    C20     1.406   .     A
C19    O4      1.395   .     S
C20    H4      1.083   .     S
C21    C22     1.406   .     A
C21    H5      1.083   .     S
C22    C23     1.427   1_654 A
C22    O5      1.395   .     S
C23    C22     1.427   1_456 A
C23    C24     1.406   .     A
C23    O6      1.395   .     S
C24    H6      1.083   .     S
N6     C25     1.360   1_546 A
N6     C28     1.360   .     A
N6     Ni1     1.895   1_655 S
C25    N6      1.360   1_564 A
C25    N7      1.338   .     A
C25    C26     1.377   .     A
C26    C27     1.361   1_564 A
C26    C32     1.396   .     A
C27    C26     1.361   1_546 A
C27    C28     1.377   .     A
C27    C29     1.396   .     A
C28    N8      1.338   .     A
C29    C30     1.407   1_556 A
C29    H7      1.083   .     S
C30    C29     1.407   1_554 A
C30    C31     1.427   1_545 A
C30    O7      1.395   .     S
C31    C30     1.427   1_565 A
C31    C32     1.406   .     A
C31    O8      1.395   .     S
C32    H8      1.083   .     S
O1     Zn1     1.803   1_655 S
O2     C3      1.395   1_554 S
O2     Zn1     1.803   1_554 S
O3     Zn4     1.803   .     S
O4     Zn4     1.803   1_565 S
O5     Zn3     1.803   1_654 S
O6     Zn3     1.803   .     S
O7     Zn2     1.803   .     S
O8     Zn2     1.803   1_565 S
Ni1    N3      1.895   1_556 S
Ni1    N6      1.895   1_455 S
Ni1    N4      1.895   1_545 S
C33    C34     1.406   .     A
C33    C38     1.399   .     A
C33    H9      1.082   .     S
C34    C35     1.388   1_556 A
C34    O9      1.381   .     S
C35    C34     1.388   1_554 A
C35    C36     1.406   .     A
C35    O10     1.381   .     S
C36    C37     1.399   .     A
C36    H10     1.082   .     S
C37    C38     1.363   1_554 A
C37    C40     1.376   .     A
C38    C37     1.363   1_556 A
C38    C39     1.376   .     A
C39    N9      1.360   1_556 A
C39    N16     1.338   .     A
N9     C39     1.360   1_554 A
N9     C40     1.360   .     A
N9     Ni2     1.896   .     S
C40    N10     1.338   .     A
N10    C41     1.338   .     A
C41    N11     1.360   .     A
C41    C44     1.376   .     A
N11    C42     1.360   .     A
N11    Ni2     1.896   .     S
C42    C43     1.376   .     A
C42    N13     1.338   .     A
C43    C44     1.363   .     A
C43    C52     1.399   .     A
C44    C49     1.399   .     A
N12    C45     1.360   .     A
N12    C48     1.360   1_554 A
N12    Ni2     1.896   .     S
C45    N13     1.338   .     A
C45    C46     1.377   .     A
C46    C47     1.360   1_554 A
C46    C56     1.396   .     A
C47    C46     1.360   1_556 A
C47    C48     1.377   .     A
C47    C53     1.396   .     A
C48    N12     1.360   1_556 A
C48    N15     1.338   .     A
C49    C50     1.406   .     A
C49    H11     1.082   .     S
C50    C51     1.388   .     A
C50    O11     1.381   .     S
C51    C52     1.406   .     A
C51    O12     1.381   .     S
C52    H12     1.082   .     S
C53    C54     1.406   .     A
C53    H13     1.083   .     S
C54    C55     1.427   1_556 A
C54    O13     1.395   .     S
C55    C54     1.427   1_554 A
C55    C56     1.406   .     A
C55    O14     1.395   .     S
C56    H14     1.083   .     S
N14    C57     1.360   .     A
N14    C60     1.360   .     A
N14    Ni2     1.896   1_556 S
C57    N15     1.338   .     A
C57    C58     1.376   .     A
C58    C59     1.363   .     A
C58    C64     1.399   .     A
C59    C60     1.376   .     A
C59    C61     1.399   .     A
C60    N16     1.338   .     A
C61    C62     1.406   .     A
C61    H15     1.082   .     S
C62    C63     1.388   .     A
C62    O15     1.381   .     S
C63    C64     1.406   .     A
C63    O16     1.381   .     S
C64    H16     1.082   .     S
O9     Cu1     1.814   1_556 S
O10    Cu1     1.814   .     S
O11    Cu3     1.814   .     S
O12    Cu3     1.814   .     S
O13    Zn1     1.803   .     S
O14    Zn1     1.803   1_554 S
O15    Cu3     1.814   .     S
O16    Cu3     1.814   .     S
Ni2    N14     1.896   1_554 S
C65    C66     1.406   .     A
C65    C70     1.399   .     A
C65    H17     1.082   .     S
C66    C67     1.388   .     A
C66    O17     1.381   .     S
C67    C68     1.406   .     A
C67    O18     1.381   .     S
C68    C69     1.399   .     A
C68    H18     1.082   .     S
C69    C70     1.363   .     A
C69    C72     1.376   .     A
C70    C71     1.376   .     A
C71    N17     1.360   .     A
C71    N24     1.338   .     A
N17    C72     1.360   .     A
N17    Ni3     1.896   1_556 S
C72    N18     1.338   .     A
N18    C73     1.338   .     A
C73    N19     1.360   1_556 A
C73    C76     1.376   .     A
N19    C73     1.360   1_554 A
N19    C74     1.360   .     A
N19    Ni3     1.896   .     S
C74    C75     1.376   .     A
C74    N21     1.338   .     A
C75    C76     1.363   1_554 A
C75    C84     1.399   .     A
C76    C75     1.363   1_556 A
C76    C81     1.399   .     A
N20    C77     1.360   .     A
N20    C80     1.360   .     A
N20    Ni3     1.896   .     S
C77    N21     1.338   .     A
C77    C78     1.376   .     A
C78    C79     1.363   .     A
C78    C88     1.399   .     A
C79    C80     1.376   .     A
C79    C85     1.399   .     A
C80    N23     1.338   .     A
C81    C82     1.406   .     A
C81    H19     1.082   .     S
C82    C83     1.388   1_556 A
C82    O19     1.381   .     S
C83    C82     1.388   1_554 A
C83    C84     1.406   .     A
C83    O20     1.381   .     S
C84    H20     1.082   .     S
C85    C86     1.406   .     A
C85    H21     1.082   .     S
C86    C87     1.388   .     A
C86    O21     1.381   .     S
C87    C88     1.406   .     A
C87    O22     1.381   .     S
C88    H22     1.082   .     S
N22    C89     1.360   .     A
N22    C92     1.360   1_554 A
N22    Ni3     1.896   .     S
C89    N23     1.338   .     A
C89    C90     1.377   .     A
C90    C91     1.360   1_554 A
C90    C96     1.396   .     A
C91    C90     1.360   1_556 A
C91    C92     1.377   .     A
C91    C93     1.396   .     A
C92    N22     1.360   1_556 A
C92    N24     1.338   .     A
C93    C94     1.406   .     A
C93    H23     1.083   .     S
C94    C95     1.427   1_556 A
C94    O23     1.395   .     S
C95    C94     1.427   1_554 A
C95    C96     1.406   .     A
C95    O24     1.395   .     S
C96    H24     1.083   .     S
O17    Cu4     1.814   .     S
O18    Cu4     1.814   .     S
O19    Cu2     1.814   1_556 S
O20    Cu2     1.814   .     S
O21    Cu4     1.814   .     S
O22    Cu4     1.814   .     S
O23    Zn2     1.803   1_556 S
O24    Zn2     1.803   .     S
Ni3    N17     1.896   1_554 S
C97    C98     1.406   .     A
C97    C102    1.399   .     A
C97    H25     1.082   .     S
C98    C99     1.388   1_554 A
C98    O25     1.381   .     S
C99    C98     1.388   1_556 A
C99    C100    1.406   .     A
C99    O26     1.381   .     S
C100   C101    1.399   .     A
C100   H26     1.082   .     S
C101   C102    1.363   1_556 A
C101   C104    1.376   .     A
C102   C101    1.363   1_554 A
C102   C103    1.376   .     A
C103   N25     1.360   .     A
C103   N32     1.338   .     A
N25    C104    1.360   1_554 A
N25    Ni4     1.896   .     S
C104   N25     1.360   1_556 A
C104   N26     1.338   .     A
N26    C105    1.338   .     A
C105   N27     1.360   .     A
C105   C108    1.376   .     A
N27    C106    1.360   .     A
N27    Ni4     1.896   1_556 S
C106   C107    1.376   .     A
C106   N29     1.338   .     A
C107   C108    1.363   .     A
C107   C116    1.399   .     A
C108   C113    1.399   .     A
N28    C109    1.360   1_554 A
N28    C112    1.360   .     A
N28    Ni4     1.896   .     S
C109   N28     1.360   1_556 A
C109   N29     1.338   .     A
C109   C110    1.377   .     A
C110   C111    1.360   1_556 A
C110   C120    1.396   .     A
C111   C110    1.360   1_554 A
C111   C112    1.377   .     A
C111   C117    1.396   .     A
C112   N31     1.338   .     A
C113   C114    1.406   .     A
C113   H27     1.082   .     S
C114   C115    1.388   .     A
C114   O27     1.381   .     S
C115   C116    1.406   .     A
C115   O28     1.381   .     S
C116   H28     1.082   .     S
C117   C118    1.406   .     A
C117   H29     1.083   .     S
C118   C119    1.427   1_554 A
C118   O29     1.395   .     S
C119   C118    1.427   1_556 A
C119   C120    1.406   .     A
C119   O30     1.395   .     S
C120   H30     1.083   .     S
N30    C121    1.360   .     A
N30    C124    1.360   .     A
N30    Ni4     1.896   .     S
C121   N31     1.338   .     A
C121   C122    1.376   .     A
C122   C123    1.363   .     A
C122   C128    1.399   .     A
C123   C124    1.376   .     A
C123   C125    1.399   .     A
C124   N32     1.338   .     A
C125   C126    1.406   .     A
C125   H31     1.082   .     S
C126   C127    1.388   .     A
C126   O31     1.381   .     S
C127   C128    1.406   .     A
C127   O32     1.381   .     S
C128   H32     1.082   .     S
O25    Cu1     1.814   .     S
O26    Cu1     1.814   1_556 S
O27    Cu5     1.814   .     S
O28    Cu5     1.814   .     S
O29    Zn3     1.803   1_554 S
O30    Zn3     1.803   .     S
O31    Cu5     1.814   .     S
O32    Cu5     1.814   .     S
Ni4    N27     1.896   1_554 S
C129   C130    1.406   .     A
C129   C134    1.399   .     A
C129   H33     1.082   .     S
C130   C131    1.388   .     A
C130   O33     1.381   .     S
C131   C132    1.406   .     A
C131   O34     1.381   .     S
C132   C133    1.399   .     A
C132   H34     1.082   .     S
C133   C134    1.363   .     A
C133   C136    1.376   .     A
C134   C135    1.376   .     A
C135   N33     1.360   .     A
C135   N40     1.338   .     A
N33    C136    1.360   .     A
N33    Ni5     1.896   .     S
C136   N34     1.338   .     A
N34    C137    1.338   .     A
C137   N35     1.360   .     A
C137   C140    1.376   .     A
N35    C138    1.360   1_554 A
N35    Ni5     1.896   .     S
C138   N35     1.360   1_556 A
C138   C139    1.376   .     A
C138   N37     1.338   .     A
C139   C140    1.363   1_556 A
C139   C148    1.399   .     A
C140   C139    1.363   1_554 A
C140   C145    1.399   .     A
N36    C141    1.360   .     A
N36    C144    1.360   .     A
N36    Ni5     1.896   1_556 S
C141   N37     1.338   .     A
C141   C142    1.376   .     A
C142   C143    1.363   .     A
C142   C152    1.399   .     A
C143   C144    1.376   .     A
C143   C149    1.399   .     A
C144   N39     1.338   .     A
C145   C146    1.406   .     A
C145   H35     1.082   .     S
C146   C147    1.388   1_554 A
C146   O35     1.381   .     S
C147   C146    1.388   1_556 A
C147   C148    1.406   .     A
C147   O36     1.381   .     S
C148   H36     1.082   .     S
C149   C150    1.406   .     A
C149   H37     1.082   .     S
C150   C151    1.388   .     A
C150   O37     1.381   .     S
C151   C152    1.406   .     A
C151   O38     1.381   .     S
C152   H38     1.082   .     S
N38    C153    1.360   1_554 A
N38    C156    1.360   .     A
N38    Ni5     1.896   .     S
C153   N38     1.360   1_556 A
C153   N39     1.338   .     A
C153   C154    1.377   .     A
C154   C155    1.360   1_556 A
C154   C160    1.396   .     A
C155   C154    1.360   1_554 A
C155   C156    1.377   .     A
C155   C157    1.396   .     A
C156   N40     1.338   .     A
C157   C158    1.406   .     A
C157   H39     1.083   .     S
C158   C159    1.427   1_554 A
C158   O39     1.395   .     S
C159   C158    1.427   1_556 A
C159   C160    1.406   .     A
C159   O40     1.395   .     S
C160   H40     1.083   .     S
O33    Cu6     1.814   .     S
O34    Cu6     1.814   .     S
O35    Cu2     1.814   .     S
O36    Cu2     1.814   1_556 S
O37    Cu6     1.814   .     S
O38    Cu6     1.814   .     S
O39    Zn4     1.803   .     S
O40    Zn4     1.803   1_556 S
Ni5    N36     1.896   1_554 S
Cu1    O26     1.814   1_554 S
Cu1    O9      1.814   1_554 S
Cu2    O19     1.814   1_554 S
Cu2    O36     1.814   1_554 S
Zn1    O2      1.803   1_556 S
Zn1    O1      1.803   1_455 S
Zn1    O14     1.803   1_556 S
Zn2    O8      1.803   1_545 S
Zn2    O23     1.803   1_554 S
Zn3    O5      1.803   1_456 S
Zn3    O29     1.803   1_556 S
Zn4    O4      1.803   1_545 S
Zn4    O40     1.803   1_554 S
