data_nod-TN_O-Feoct
_audit_creation_date              2021-11-06
_audit_creation_method            'Materials Studio'
_symmetry_space_group_name_H-M    'P2'
_symmetry_Int_Tables_number       3
_symmetry_cell_setting            monoclinic
loop_
_symmetry_equiv_pos_as_xyz
  x,y,z
  -x,y,-z
_cell_length_a                    52.9000
_cell_length_b                    31.7964
_cell_length_c                    24.4858
_cell_angle_alpha                 90.0000
_cell_angle_beta                  89.9980
_cell_angle_gamma                 90.0000
loop_
_atom_site_label
_atom_site_type_symbol
_atom_site_fract_x
_atom_site_fract_y
_atom_site_fract_z
_atom_site_U_iso_or_equiv
_atom_site_adp_type
_atom_site_occupancy
C1     C    -0.11035   0.23657   0.27352   0.00000  Uiso   1.00
C2     C    -0.11034   0.26349   0.22656   0.00000  Uiso   1.00
C3     C    -0.08694   0.27695   0.20317   0.00000  Uiso   1.00
C4     C    -0.06389   0.26166   0.22533   0.00000  Uiso   1.00
C5     C    -0.06390   0.23834   0.27471   0.00000  Uiso   1.00
C6     C    -0.08695   0.22309   0.29691   0.00000  Uiso   1.00
C7     C    -0.04117   0.26890   0.19642   0.00000  Uiso   1.00
C8     C    -0.04037   0.29516   0.15103   0.00000  Uiso   1.00
C9     C    -0.06258   0.31497   0.13271   0.00000  Uiso   1.00
C10    C    -0.08562   0.30553   0.15832   0.00000  Uiso   1.00
C11    C    -0.13391   0.22510   0.29694   0.00000  Uiso   1.00
C12    C    -0.15684   0.23762   0.27383   0.00000  Uiso   1.00
C13    C    -0.15683   0.26247   0.22622   0.00000  Uiso   1.00
C14    C    -0.13390   0.27497   0.20312   0.00000  Uiso   1.00
C15    C    -0.08564   0.19453   0.34178   0.00000  Uiso   1.00
C16    C    -0.06259   0.18507   0.36736   0.00000  Uiso   1.00
C17    C    -0.04037   0.20484   0.34899   0.00000  Uiso   1.00
C18    C    -0.04117   0.23107   0.30359   0.00000  Uiso   1.00
C19    C    -0.01738   0.19762   0.37577   0.00000  Uiso   1.00
C20    C    -0.01640   0.16984   0.41954   0.00000  Uiso   1.00
C21    C    -0.03801   0.14887   0.43714   0.00000  Uiso   1.00
C22    C    -0.06130   0.15663   0.41162   0.00000  Uiso   1.00
C23    C    -0.06128   0.34342   0.08846   0.00000  Uiso   1.00
C24    C    -0.03800   0.35115   0.06290   0.00000  Uiso   1.00
C25    C    -0.01639   0.33016   0.08047   0.00000  Uiso   1.00
C26    C    -0.01738   0.30237   0.12422   0.00000  Uiso   1.00
H1     H    -0.02379   0.25329   0.20762   0.00000  Uiso   1.00
H2     H    -0.10205   0.32154   0.14279   0.00000  Uiso   1.00
H3     H    -0.13517   0.20705   0.33403   0.00000  Uiso   1.00
H4     H    -0.13515   0.29301   0.16602   0.00000  Uiso   1.00
H5     H    -0.10208   0.17857   0.35737   0.00000  Uiso   1.00
H6     H    -0.02378   0.24665   0.29236   0.00000  Uiso   1.00
H7     H    -0.00016   0.21296   0.36236   0.00000  Uiso   1.00
O1     O     0.00621   0.16207   0.44597   0.00000  Uiso   1.00
O2     O    -0.03553   0.12039   0.48007   0.00000  Uiso   1.00
H8     H    -0.07810   0.14063   0.42609   0.00000  Uiso   1.00
H9     H    -0.07808   0.35943   0.07402   0.00000  Uiso   1.00
O3     O    -0.03553   0.37962   0.01995   0.00000  Uiso   1.00
O4     O     0.00621   0.33794   0.05403   0.00000  Uiso   1.00
H10    H    -0.00017   0.28700   0.13761   0.00000  Uiso   1.00
C27    C    -0.17996   0.27463   0.20246   0.00000  Uiso   1.00
C28    C    -0.20261   0.26205   0.22671   0.00000  Uiso   1.00
C29    C    -0.20262   0.23802   0.27326   0.00000  Uiso   1.00
C30    C    -0.17998   0.22545   0.29756   0.00000  Uiso   1.00
H11    H    -0.18045   0.29369   0.16579   0.00000  Uiso   1.00
O5     O    -0.22603   0.27273   0.20602   0.00000  Uiso   1.00
O6     O    -0.22605   0.22732   0.29389   0.00000  Uiso   1.00
H12    H    -0.18047   0.20639   0.33423   0.00000  Uiso   1.00
C31    C    -0.11035   0.73655   0.77350   0.00000  Uiso   1.00
C32    C    -0.11035   0.76347   0.72655   0.00000  Uiso   1.00
C33    C    -0.08695   0.77693   0.70315   0.00000  Uiso   1.00
C34    C    -0.06390   0.76165   0.72531   0.00000  Uiso   1.00
C35    C    -0.06390   0.73833   0.77470   0.00000  Uiso   1.00
C36    C    -0.08696   0.72309   0.79691   0.00000  Uiso   1.00
C37    C    -0.04117   0.76888   0.69640   0.00000  Uiso   1.00
C38    C    -0.04037   0.79512   0.65100   0.00000  Uiso   1.00
C39    C    -0.06258   0.81491   0.63266   0.00000  Uiso   1.00
C40    C    -0.08563   0.80548   0.65827   0.00000  Uiso   1.00
C41    C    -0.13392   0.72505   0.79690   0.00000  Uiso   1.00
C42    C    -0.15685   0.73757   0.77380   0.00000  Uiso   1.00
C43    C    -0.15684   0.76245   0.72621   0.00000  Uiso   1.00
C44    C    -0.13391   0.77497   0.70313   0.00000  Uiso   1.00
C45    C    -0.08564   0.69457   0.84182   0.00000  Uiso   1.00
C46    C    -0.06260   0.68511   0.86740   0.00000  Uiso   1.00
C47    C    -0.04038   0.70486   0.84900   0.00000  Uiso   1.00
C48    C    -0.04117   0.73108   0.80358   0.00000  Uiso   1.00
C49    C    -0.01738   0.69762   0.87577   0.00000  Uiso   1.00
C50    C    -0.01640   0.66985   0.91954   0.00000  Uiso   1.00
C51    C    -0.03801   0.64890   0.93716   0.00000  Uiso   1.00
C52    C    -0.06130   0.65668   0.91168   0.00000  Uiso   1.00
C53    C    -0.06129   0.84335   0.58840   0.00000  Uiso   1.00
C54    C    -0.03800   0.85112   0.56288   0.00000  Uiso   1.00
C55    C    -0.01639   0.83015   0.58047   0.00000  Uiso   1.00
C56    C    -0.01738   0.80235   0.62421   0.00000  Uiso   1.00
H13    H    -0.02378   0.75330   0.70761   0.00000  Uiso   1.00
H14    H    -0.10206   0.82145   0.64268   0.00000  Uiso   1.00
H15    H    -0.13519   0.70693   0.83392   0.00000  Uiso   1.00
H16    H    -0.13516   0.79308   0.66609   0.00000  Uiso   1.00
H17    H    -0.10208   0.67864   0.85747   0.00000  Uiso   1.00
H18    H    -0.02378   0.74663   0.79234   0.00000  Uiso   1.00
H19    H    -0.00016   0.71294   0.86234   0.00000  Uiso   1.00
O7     O     0.00620   0.66208   0.94597   0.00000  Uiso   1.00
O8     O    -0.03553   0.62041   0.98009   0.00000  Uiso   1.00
H20    H    -0.07810   0.64070   0.92617   0.00000  Uiso   1.00
H21    H    -0.07809   0.85935   0.57394   0.00000  Uiso   1.00
O9     O    -0.03553   0.87960   0.51994   0.00000  Uiso   1.00
O10    O     0.00621   0.83793   0.55403   0.00000  Uiso   1.00
H22    H    -0.00016   0.78701   0.63762   0.00000  Uiso   1.00
C57    C    -0.17997   0.77464   0.70248   0.00000  Uiso   1.00
C58    C    -0.20262   0.76202   0.72670   0.00000  Uiso   1.00
C59    C    -0.20263   0.73797   0.77322   0.00000  Uiso   1.00
C60    C    -0.17999   0.72537   0.79749   0.00000  Uiso   1.00
H23    H    -0.18046   0.79376   0.66586   0.00000  Uiso   1.00
O11    O    -0.22604   0.77270   0.70600   0.00000  Uiso   1.00
O12    O    -0.22606   0.72726   0.79385   0.00000  Uiso   1.00
H24    H    -0.18048   0.70625   0.83411   0.00000  Uiso   1.00
C121   C     0.61035   0.73657   0.77350   0.00000  Uiso   1.00
C122   C     0.61034   0.76348   0.72652   0.00000  Uiso   1.00
C123   C     0.58694   0.77691   0.70311   0.00000  Uiso   1.00
C124   C     0.56389   0.76161   0.72527   0.00000  Uiso   1.00
C125   C     0.56389   0.73831   0.77467   0.00000  Uiso   1.00
C126   C     0.58695   0.72310   0.79690   0.00000  Uiso   1.00
C127   C     0.54117   0.76882   0.69636   0.00000  Uiso   1.00
C128   C     0.54036   0.79508   0.65098   0.00000  Uiso   1.00
C129   C     0.56257   0.81490   0.63265   0.00000  Uiso   1.00
C130   C     0.58562   0.80548   0.65825   0.00000  Uiso   1.00
C131   C     0.63391   0.72510   0.79692   0.00000  Uiso   1.00
C132   C     0.65684   0.73760   0.77378   0.00000  Uiso   1.00
C133   C     0.65683   0.76245   0.72617   0.00000  Uiso   1.00
C134   C     0.63390   0.77497   0.70309   0.00000  Uiso   1.00
C135   C     0.58564   0.69459   0.84182   0.00000  Uiso   1.00
C136   C     0.56260   0.68509   0.86739   0.00000  Uiso   1.00
C137   C     0.54037   0.70481   0.84897   0.00000  Uiso   1.00
C138   C     0.54116   0.73102   0.80354   0.00000  Uiso   1.00
C139   C     0.51738   0.69756   0.87575   0.00000  Uiso   1.00
C140   C     0.51640   0.66980   0.91954   0.00000  Uiso   1.00
C141   C     0.53801   0.64886   0.93715   0.00000  Uiso   1.00
C142   C     0.56131   0.65666   0.91167   0.00000  Uiso   1.00
C143   C     0.56128   0.84336   0.58842   0.00000  Uiso   1.00
C144   C     0.53799   0.85111   0.56289   0.00000  Uiso   1.00
C145   C     0.51639   0.83012   0.58045   0.00000  Uiso   1.00
C146   C     0.51737   0.80230   0.62419   0.00000  Uiso   1.00
H49    H     0.52379   0.75321   0.70757   0.00000  Uiso   1.00
H50    H     0.60205   0.82149   0.64270   0.00000  Uiso   1.00
H51    H     0.63517   0.70706   0.83401   0.00000  Uiso   1.00
H52    H     0.63515   0.79301   0.66600   0.00000  Uiso   1.00
H53    H     0.60208   0.67867   0.85745   0.00000  Uiso   1.00
H54    H     0.52376   0.74654   0.79230   0.00000  Uiso   1.00
H55    H     0.50016   0.71287   0.86231   0.00000  Uiso   1.00
O25    O     0.49380   0.66202   0.94597   0.00000  Uiso   1.00
O26    O     0.53553   0.62035   0.98006   0.00000  Uiso   1.00
H56    H     0.57811   0.64069   0.92616   0.00000  Uiso   1.00
H57    H     0.57808   0.85938   0.57398   0.00000  Uiso   1.00
O27    O     0.53553   0.87960   0.51996   0.00000  Uiso   1.00
O28    O     0.49378   0.83791   0.55403   0.00000  Uiso   1.00
H58    H     0.50015   0.78694   0.63757   0.00000  Uiso   1.00
C147   C     0.67997   0.77460   0.70240   0.00000  Uiso   1.00
C148   C     0.70262   0.76200   0.72664   0.00000  Uiso   1.00
C149   C     0.70261   0.73796   0.77318   0.00000  Uiso   1.00
C150   C     0.67997   0.72540   0.79748   0.00000  Uiso   1.00
H59    H     0.68047   0.79367   0.66574   0.00000  Uiso   1.00
O29    O     0.72604   0.77268   0.70596   0.00000  Uiso   1.00
O30    O     0.72604   0.72723   0.79380   0.00000  Uiso   1.00
H60    H     0.68046   0.70632   0.83414   0.00000  Uiso   1.00
C151   C     0.61035   0.23657   0.27350   0.00000  Uiso   1.00
C152   C     0.61035   0.26351   0.22656   0.00000  Uiso   1.00
C153   C     0.58695   0.27696   0.20316   0.00000  Uiso   1.00
C154   C     0.56390   0.26163   0.22530   0.00000  Uiso   1.00
C155   C     0.56390   0.23830   0.27466   0.00000  Uiso   1.00
C156   C     0.58696   0.22308   0.29688   0.00000  Uiso   1.00
C157   C     0.54118   0.26884   0.19638   0.00000  Uiso   1.00
C158   C     0.54037   0.29510   0.15100   0.00000  Uiso   1.00
C159   C     0.56258   0.31494   0.13270   0.00000  Uiso   1.00
C160   C     0.58562   0.30555   0.15832   0.00000  Uiso   1.00
C161   C     0.63392   0.22509   0.29690   0.00000  Uiso   1.00
C162   C     0.65684   0.23761   0.27379   0.00000  Uiso   1.00
C163   C     0.65684   0.26249   0.22620   0.00000  Uiso   1.00
C164   C     0.63391   0.27502   0.20314   0.00000  Uiso   1.00
C165   C     0.58565   0.19454   0.34177   0.00000  Uiso   1.00
C166   C     0.56260   0.18507   0.36736   0.00000  Uiso   1.00
C167   C     0.54038   0.20480   0.34896   0.00000  Uiso   1.00
C168   C     0.54117   0.23101   0.30354   0.00000  Uiso   1.00
C169   C     0.51739   0.19757   0.37574   0.00000  Uiso   1.00
C170   C     0.51641   0.16981   0.41952   0.00000  Uiso   1.00
C171   C     0.53802   0.14886   0.43714   0.00000  Uiso   1.00
C172   C     0.56131   0.15664   0.41165   0.00000  Uiso   1.00
C173   C     0.56128   0.34339   0.08845   0.00000  Uiso   1.00
C174   C     0.53800   0.35111   0.06290   0.00000  Uiso   1.00
C175   C     0.51639   0.33012   0.08047   0.00000  Uiso   1.00
C176   C     0.51738   0.30230   0.12420   0.00000  Uiso   1.00
H61    H     0.52380   0.25321   0.20757   0.00000  Uiso   1.00
H62    H     0.60205   0.32157   0.14277   0.00000  Uiso   1.00
H63    H     0.63518   0.20698   0.33394   0.00000  Uiso   1.00
H64    H     0.63516   0.29314   0.16611   0.00000  Uiso   1.00
H65    H     0.60208   0.17862   0.35739   0.00000  Uiso   1.00
H66    H     0.52377   0.24656   0.29231   0.00000  Uiso   1.00
H67    H     0.50017   0.21288   0.36231   0.00000  Uiso   1.00
O31    O     0.49380   0.16206   0.44597   0.00000  Uiso   1.00
O32    O     0.53554   0.12039   0.48009   0.00000  Uiso   1.00
H68    H     0.57811   0.14066   0.42614   0.00000  Uiso   1.00
H69    H     0.57808   0.35942   0.07402   0.00000  Uiso   1.00
O33    O     0.53553   0.37957   0.01993   0.00000  Uiso   1.00
O34    O     0.49379   0.33788   0.05403   0.00000  Uiso   1.00
H70    H     0.50016   0.28693   0.13758   0.00000  Uiso   1.00
C177   C     0.67998   0.27465   0.20244   0.00000  Uiso   1.00
C178   C     0.70262   0.26203   0.22666   0.00000  Uiso   1.00
C179   C     0.70262   0.23800   0.27321   0.00000  Uiso   1.00
C180   C     0.67998   0.22542   0.29749   0.00000  Uiso   1.00
H71    H     0.68047   0.29376   0.16581   0.00000  Uiso   1.00
O35    O     0.72605   0.27270   0.20597   0.00000  Uiso   1.00
O36    O     0.72605   0.22729   0.29385   0.00000  Uiso   1.00
H72    H     0.68046   0.20630   0.33412   0.00000  Uiso   1.00
C241   C    -0.00001   0.50001   0.94261   0.00000  Uiso   1.00
C242   C    -0.00142   0.46216   0.97171   0.00000  Uiso   1.00
C245   C    -0.00141   0.53785   0.02829   0.00000  Uiso   1.00
H97    H    -0.00002   0.50001   0.89840   0.00000  Uiso   1.00
O49    O    -0.00537   0.42389   0.94585   0.00000  Uiso   1.00
O51    O    -0.00536   0.57612   0.05415   0.00000  Uiso   1.00
C247   C     0.50002   0.49996   0.94262   0.00000  Uiso   1.00
C248   C     0.50142   0.46212   0.97171   0.00000  Uiso   1.00
C251   C     0.50141   0.53781   0.02829   0.00000  Uiso   1.00
H99    H     0.50002   0.49995   0.89842   0.00000  Uiso   1.00
O53    O     0.50536   0.42385   0.94585   0.00000  Uiso   1.00
O55    O     0.50536   0.57607   0.05415   0.00000  Uiso   1.00
C253   C     0.00000   0.00000   0.44261   0.00000  Uiso   1.00
C254   C     0.00142   0.03785   0.47171   0.00000  Uiso   1.00
C257   C     0.00142   0.96216   0.52829   0.00000  Uiso   1.00
H101   H     0.00002  -0.00001   0.39840   0.00000  Uiso   1.00
O57    O     0.00537   0.07611   0.44585   0.00000  Uiso   1.00
O59    O     0.00536   0.92389   0.55415   0.00000  Uiso   1.00
C259   C     0.50004  -0.00000   0.44262   0.00000  Uiso   1.00
C260   C     0.50143   0.96215   0.47171   0.00000  Uiso   1.00
C263   C     0.50140   0.03784   0.52829   0.00000  Uiso   1.00
H103   H     0.50007  -0.00001   0.39843   0.00000  Uiso   1.00
O61    O     0.50537   0.92388   0.44585   0.00000  Uiso   1.00
O63    O     0.50535   0.07611   0.55416   0.00000  Uiso   1.00
Fe9    Cu   -0.25000   0.25001   0.24992   0.00000  Uiso   1.00
Fe10   Cu    0.75000   0.74996   0.74989   0.00000  Uiso   1.00
Fe1    Fe    0.00000   0.38052  -0.00000   0.00000  Uiso   1.00
Fe2    Fe   -0.00000   0.61950  -0.00000   0.00000  Uiso   1.00
Fe3    Fe    0.50000   0.61944   0.00000   0.00000  Uiso   1.00
Fe4    Fe    0.50000   0.38047   0.00000   0.00000  Uiso   1.00
Fe5    Fe   -0.00000   0.88051   0.50000   0.00000  Uiso   1.00
Fe6    Fe   -0.00000   0.11949   0.50000   0.00000  Uiso   1.00
Fe7    Fe    0.50000   0.11948   0.50000   0.00000  Uiso   1.00
Fe8    Fe    0.50000   0.88050   0.50000   0.00000  Uiso   1.00
loop_
_geom_bond_atom_site_label_1
_geom_bond_atom_site_label_2
_geom_bond_distance
_geom_bond_site_symmetry_2
_ccdc_geom_bond_type
C1     C2      1.433   .     A
C1     C6      1.430   .     A
C1     C11     1.420   .     A
C2     C3      1.430   .     A
C2     C14     1.420   .     A
C3     C4      1.420   .     A
C3     C10     1.427   .     A
C4     C5      1.418   .     A
C4     C7      1.414   .     A
C5     C6      1.420   .     A
C5     C18     1.414   .     A
C6     C15     1.427   .     A
C7     C8      1.391   .     A
C7     H1      1.080   .     S
C8     C9      1.407   .     A
C8     C26     1.401   .     A
C9     C10     1.403   .     A
C9     C23     1.413   .     A
C10    H2      1.077   .     S
C11    C12     1.396   .     A
C11    H3      1.076   .     S
C12    C13     1.408   .     A
C12    C30     1.409   .     A
C13    C14     1.396   .     A
C13    C27     1.409   .     A
C14    H4      1.076   .     S
C15    C16     1.403   .     A
C15    H5      1.077   .     S
C16    C17     1.407   .     A
C16    C22     1.413   .     A
C17    C18     1.391   .     A
C17    C19     1.401   .     A
C18    H6      1.080   .     S
C19    C20     1.390   .     A
C19    H7      1.084   .     S
C20    C21     1.392   .     A
C20    O1      1.382   .     S
C21    C22     1.403   .     A
C21    O2      1.394   .     S
C22    H8      1.084   .     S
C23    C24     1.403   .     A
C23    H9      1.083   .     S
C24    C25     1.392   .     A
C24    O3      1.394   .     S
C25    C26     1.390   .     A
C25    O4      1.382   .     S
C26    H10     1.084   .     S
O1     Fe6     1.921   .     S
O2     Fe6     1.942   .     S
O3     Fe1     1.942   .     S
O4     Fe1     1.921   .     S
C27    C28     1.396   .     A
C27    H11     1.084   .     S
C28    C29     1.372   .     A
C28    O5      1.381   .     S
C29    C30     1.396   .     A
C29    O6      1.381   .     S
C30    H12     1.084   .     S
O5     Fe9     1.812   .     S
O6     Fe9     1.812   .     S
C31    C32     1.433   .     A
C31    C36     1.430   .     A
C31    C41     1.420   .     A
C32    C33     1.430   .     A
C32    C44     1.420   .     A
C33    C34     1.420   .     A
C33    C40     1.427   .     A
C34    C35     1.418   .     A
C34    C37     1.414   .     A
C35    C36     1.421   .     A
C35    C48     1.414   .     A
C36    C45     1.427   .     A
C37    C38     1.391   .     A
C37    H13     1.080   .     S
C38    C39     1.407   .     A
C38    C56     1.401   .     A
C39    C40     1.403   .     A
C39    C53     1.413   .     A
C40    H14     1.077   .     S
C41    C42     1.396   .     A
C41    H15     1.076   .     S
C42    C43     1.408   .     A
C42    C60     1.409   .     A
C43    C44     1.396   .     A
C43    C57     1.409   .     A
C44    H16     1.076   .     S
C45    C46     1.403   .     A
C45    H17     1.077   .     S
C46    C47     1.407   .     A
C46    C52     1.413   .     A
C47    C48     1.390   .     A
C47    C49     1.401   .     A
C48    H18     1.080   .     S
C49    C50     1.390   .     A
C49    H19     1.084   .     S
C50    C51     1.392   .     A
C50    O7      1.382   .     S
C51    C52     1.403   .     A
C51    O8      1.394   .     S
C52    H20     1.084   .     S
C53    C54     1.403   .     A
C53    H21     1.083   .     S
C54    C55     1.392   .     A
C54    O9      1.394   .     S
C55    C56     1.390   .     A
C55    O10     1.382   .     S
C56    H22     1.084   .     S
O7     Fe2     1.921   1_556 S
O8     Fe2     1.942   1_556 S
O9     Fe5     1.942   .     S
O10    Fe5     1.921   .     S
C57    C58     1.396   .     A
C57    H23     1.084   .     S
C58    C59     1.372   .     A
C58    O11     1.381   .     S
C59    C60     1.396   .     A
C59    O12     1.381   .     S
C60    H24     1.084   .     S
O11    Fe10    1.812   1_455 S
O12    Fe10    1.812   1_455 S
C121   C122    1.433   .     A
C121   C126    1.430   .     A
C121   C131    1.420   .     A
C122   C123    1.429   .     A
C122   C134    1.420   .     A
C123   C124    1.420   .     A
C123   C130    1.427   .     A
C124   C125    1.418   .     A
C124   C127    1.414   .     A
C125   C126    1.420   .     A
C125   C138    1.414   .     A
C126   C135    1.427   .     A
C127   C128    1.391   .     A
C127   H49     1.080   .     S
C128   C129    1.407   .     A
C128   C146    1.401   .     A
C129   C130    1.403   .     A
C129   C143    1.413   .     A
C130   H50     1.077   .     S
C131   C132    1.396   .     A
C131   H51     1.076   .     S
C132   C133    1.408   .     A
C132   C150    1.409   .     A
C133   C134    1.396   .     A
C133   C147    1.409   .     A
C134   H52     1.076   .     S
C135   C136    1.403   .     A
C135   H53     1.077   .     S
C136   C137    1.407   .     A
C136   C142    1.413   .     A
C137   C138    1.391   .     A
C137   C139    1.401   .     A
C138   H54     1.080   .     S
C139   C140    1.390   .     A
C139   H55     1.084   .     S
C140   C141    1.392   .     A
C140   O25     1.382   .     S
C141   C142    1.403   .     A
C141   O26     1.394   .     S
C142   H56     1.083   .     S
C143   C144    1.403   .     A
C143   H57     1.084   .     S
C144   C145    1.392   .     A
C144   O27     1.394   .     S
C145   C146    1.390   .     A
C145   O28     1.382   .     S
C146   H58     1.084   .     S
O25    Fe3     1.921   1_556 S
O26    Fe3     1.942   1_556 S
O27    Fe8     1.942   .     S
O28    Fe8     1.921   .     S
C147   C148    1.396   .     A
C147   H59     1.084   .     S
C148   C149    1.372   .     A
C148   O29     1.381   .     S
C149   C150    1.396   .     A
C149   O30     1.381   .     S
C150   H60     1.084   .     S
O29    Fe10    1.812   .     S
O30    Fe10    1.812   .     S
C151   C152    1.433   .     A
C151   C156    1.430   .     A
C151   C161    1.420   .     A
C152   C153    1.429   .     A
C152   C164    1.420   .     A
C153   C154    1.420   .     A
C153   C160    1.427   .     A
C154   C155    1.418   .     A
C154   C157    1.414   .     A
C155   C156    1.420   .     A
C155   C168    1.414   .     A
C156   C165    1.427   .     A
C157   C158    1.391   .     A
C157   H61     1.080   .     S
C158   C159    1.407   .     A
C158   C176    1.401   .     A
C159   C160    1.403   .     A
C159   C173    1.413   .     A
C160   H62     1.077   .     S
C161   C162    1.396   .     A
C161   H63     1.076   .     S
C162   C163    1.408   .     A
C162   C180    1.409   .     A
C163   C164    1.396   .     A
C163   C177    1.409   .     A
C164   H64     1.076   .     S
C165   C166    1.403   .     A
C165   H65     1.077   .     S
C166   C167    1.407   .     A
C166   C172    1.413   .     A
C167   C168    1.390   .     A
C167   C169    1.401   .     A
C168   H66     1.080   .     S
C169   C170    1.390   .     A
C169   H67     1.084   .     S
C170   C171    1.392   .     A
C170   O31     1.382   .     S
C171   C172    1.403   .     A
C171   O32     1.394   .     S
C172   H68     1.083   .     S
C173   C174    1.403   .     A
C173   H69     1.083   .     S
C174   C175    1.392   .     A
C174   O33     1.394   .     S
C175   C176    1.390   .     A
C175   O34     1.382   .     S
C176   H70     1.084   .     S
O31    Fe7     1.921   .     S
O32    Fe7     1.942   .     S
O33    Fe4     1.942   .     S
O34    Fe4     1.921   .     S
C177   C178    1.396   .     A
C177   H71     1.084   .     S
C178   C179    1.372   .     A
C178   O35     1.381   .     S
C179   C180    1.396   .     A
C179   O36     1.381   .     S
C180   H72     1.084   .     S
O35    Fe9     1.812   1_655 S
O36    Fe9     1.812   1_655 S
C241   C242    1.400   .     A
C241   C245    1.400   2_556 A
C241   H97     1.082   .     S
C242   C242    1.394   2_557 A
C242   O49     1.387   .     S
C245   C241    1.400   2_556 A
C245   C245    1.394   2     A
C245   O51     1.388   .     S
O49    Fe1     1.934   1_556 S
O51    Fe2     1.934   .     S
C247   C248    1.400   .     A
C247   C251    1.400   2_656 A
C247   H99     1.082   .     S
C248   C248    1.393   2_657 A
C248   O53     1.387   .     S
C251   C247    1.400   2_656 A
C251   C251    1.393   2_655 A
C251   O55     1.387   .     S
O53    Fe4     1.934   1_556 S
O55    Fe3     1.934   .     S
C253   C254    1.400   .     A
C253   C257    1.400   2_546 A
C253   H101    1.082   .     S
C254   C254    1.394   2_556 A
C254   O57     1.387   .     S
C257   C253    1.400   2_566 A
C257   C257    1.394   2_556 A
C257   O59     1.387   .     S
O57    Fe6     1.934   .     S
O59    Fe5     1.934   .     S
C259   C260    1.400   1_545 A
C259   C263    1.400   2_656 A
C259   H103    1.082   .     S
C260   C259    1.400   1_565 A
C260   C260    1.393   2_656 A
C260   O61     1.387   .     S
C263   C259    1.400   2_656 A
C263   C263    1.393   2_656 A
C263   O63     1.387   .     S
O61    Fe8     1.934   .     S
O63    Fe7     1.934   .     S
Fe9    O36     1.812   1_455 S
Fe9    O35     1.812   1_455 S
Fe10   O11     1.812   1_655 S
Fe10   O12     1.812   1_655 S
Fe1    O3      1.942   2     S
Fe1    O4      1.921   2     S
Fe1    O49     1.934   1_554 S
Fe1    O49     1.934   2_556 S
Fe2    O7      1.921   2_556 S
Fe2    O7      1.921   1_554 S
Fe2    O8      1.942   1_554 S
Fe2    O8      1.942   2_556 S
Fe2    O51     1.934   2     S
Fe3    O25     1.921   2_656 S
Fe3    O25     1.921   1_554 S
Fe3    O26     1.942   2_656 S
Fe3    O26     1.942   1_554 S
Fe3    O55     1.934   2_655 S
Fe4    O34     1.921   2_655 S
Fe4    O33     1.942   2_655 S
Fe4    O53     1.934   1_554 S
Fe4    O53     1.934   2_656 S
Fe5    O9      1.942   2_556 S
Fe5    O10     1.921   2_556 S
Fe5    O59     1.934   2_556 S
Fe6    O2      1.942   2_556 S
Fe6    O1      1.921   2_556 S
Fe6    O57     1.934   2_556 S
Fe7    O31     1.921   2_656 S
Fe7    O32     1.942   2_656 S
Fe7    O63     1.934   2_656 S
Fe8    O28     1.921   2_656 S
Fe8    O27     1.942   2_656 S
Fe8    O61     1.934   2_656 S
