data_nod-TP_O-Feoct
_audit_creation_date              2021-11-06
_audit_creation_method            'Materials Studio'
_symmetry_space_group_name_H-M    'PNNM'
_symmetry_Int_Tables_number       58
_symmetry_cell_setting            orthorhombic
loop_
_symmetry_equiv_pos_as_xyz
  x,y,z
  -x,-y,z
  -x+1/2,y+1/2,-z+1/2
  x+1/2,-y+1/2,-z+1/2
  -x,-y,-z
  x,y,-z
  x+1/2,-y+1/2,z+1/2
  -x+1/2,y+1/2,z+1/2
_cell_length_a                    27.5264
_cell_length_b                    17.4739
_cell_length_c                    37.8616
_cell_angle_alpha                 90.0000
_cell_angle_beta                  90.0000
_cell_angle_gamma                 90.0000
loop_
_atom_site_label
_atom_site_type_symbol
_atom_site_fract_x
_atom_site_fract_y
_atom_site_fract_z
_atom_site_U_iso_or_equiv
_atom_site_adp_type
_atom_site_occupancy
C1     C     0.23306   0.28147   0.63070   0.00000  Uiso   1.00
C2     C     0.26691   0.21869   0.63070   0.00000  Uiso   1.00
C3     C     0.28280   0.18631   0.66334   0.00000  Uiso   1.00
C4     C     0.26421   0.21632   0.69556   0.00000  Uiso   1.00
C5     C     0.23580   0.28387   0.69556   0.00000  Uiso   1.00
C6     C     0.21719   0.31386   0.66334   0.00000  Uiso   1.00
C7     C     0.27333   0.17624   0.72731   0.00000  Uiso   1.00
C8     C     0.30433   0.11402   0.72798   0.00000  Uiso   1.00
C9     C     0.32752   0.08975   0.69764   0.00000  Uiso   1.00
C10    C     0.31652   0.12425   0.66527   0.00000  Uiso   1.00
C11    C     0.21743   0.31136   0.59768   0.00000  Uiso   1.00
C12    C     0.23411   0.27998   0.56622   0.00000  Uiso   1.00
C13    C     0.26583   0.22015   0.56622   0.00000  Uiso   1.00
C14    C     0.28252   0.18878   0.59767   0.00000  Uiso   1.00
C15    C     0.18346   0.37591   0.66528   0.00000  Uiso   1.00
C16    C     0.17248   0.41042   0.69764   0.00000  Uiso   1.00
C17    C     0.19569   0.38617   0.72798   0.00000  Uiso   1.00
C18    C     0.22670   0.32397   0.72731   0.00000  Uiso   1.00
H1     H     0.25573   0.19064   0.75191   0.00000  Uiso   1.00
O1     O     0.31303   0.07553   0.75922   0.00000  Uiso   1.00
O2     O     0.36069   0.02968   0.70054   0.00000  Uiso   1.00
H2     H     0.33493   0.10136   0.64253   0.00000  Uiso   1.00
H3     H     0.19298   0.35910   0.59521   0.00000  Uiso   1.00
O3     O     0.21995   0.30696   0.53349   0.00000  Uiso   1.00
O4     O     0.27998   0.19316   0.53348   0.00000  Uiso   1.00
H4     H     0.30698   0.14105   0.59521   0.00000  Uiso   1.00
H5     H     0.16503   0.39878   0.64254   0.00000  Uiso   1.00
O5     O     0.13930   0.47047   0.70056   0.00000  Uiso   1.00
O6     O     0.18701   0.42467   0.75922   0.00000  Uiso   1.00
H6     H     0.24432   0.30958   0.75190   0.00000  Uiso   1.00
Fe1    Fe    0.36202   0.00008   0.74999   0.00000  Uiso   1.00
C145   C     0.49998   0.91958   0.74998   0.00000  Uiso   1.00
C146   C     0.45630   0.96041   0.74789   0.00000  Uiso   1.00
C147   C     0.45631   0.03964   0.75208   0.00000  Uiso   1.00
H49    H     0.49997   0.85764   0.74999   0.00000  Uiso   1.00
O49    O     0.41211   0.92438   0.74205   0.00000  Uiso   1.00
O50    O     0.41214   0.07572   0.75793   0.00000  Uiso   1.00
Fe9    Cu    0.24996   0.25005   1.50000   0.00000  Uiso   1.00
loop_
_geom_bond_atom_site_label_1
_geom_bond_atom_site_label_2
_geom_bond_distance
_geom_bond_site_symmetry_2
_ccdc_geom_bond_type
C1     C2      1.439   .     A
C1     C6      1.428   .     A
C1     C11     1.422   .     A
C2     C3      1.428   .     A
C2     C14     1.422   .     A
C3     C4      1.423   .     A
C3     C10     1.429   .     A
C4     C5      1.416   .     A
C4     C7      1.414   .     A
C5     C6      1.423   .     A
C5     C18     1.414   .     A
C6     C15     1.429   .     A
C7     C8      1.382   .     A
C7     H1      1.079   .     S
C8     C9      1.381   .     A
C8     O1      1.382   .     S
C9     C10     1.399   .     A
C9     O2      1.395   .     S
C10    H2      1.076   .     S
C11    C12     1.389   .     A
C11    H3      1.076   .     S
C12    C13     1.362   .     A
C12    O3      1.382   .     S
C13    C14     1.389   .     A
C13    O4      1.382   .     S
C14    H4      1.076   .     S
C15    C16     1.399   .     A
C15    H5      1.076   .     S
C16    C17     1.381   .     A
C16    O5      1.395   .     S
C17    C18     1.382   .     A
C17    O6      1.382   .     S
C18    H6      1.079   .     S
O1     Fe1     1.918   .     S
O2     Fe1     1.943   .     S
O3     Fe9     1.811   1_554 S
O4     Fe9     1.811   1_554 S
O5     Fe1     1.943   3_556 S
O6     Fe1     1.918   3_556 S
Fe1    O6      1.918   3_546 S
Fe1    O5      1.943   3_546 S
Fe1    O49     1.934   1_545 S
Fe1    O50     1.934   .     S
C145   C146    1.401   .     A
C145   C147    1.401   2_665 A
C145   H49     1.082   .     S
C146   C147    1.393   1_565 A
C146   O49     1.387   .     S
C147   C146    1.393   1_545 A
C147   C145    1.401   2_665 A
C147   O50     1.387   .     S
O49    Fe1     1.934   1_565 S
Fe9    O3      1.811   6_557 S
Fe9    O3      1.811   1_556 S
Fe9    O4      1.811   6_557 S
Fe9    O4      1.811   1_556 S
