data_nod-spacer-B_O-Feoct
_audit_creation_date              2021-11-06
_audit_creation_method            'Materials Studio'
_symmetry_space_group_name_H-M    'P2'
_symmetry_Int_Tables_number       3
_symmetry_cell_setting            monoclinic
loop_
_symmetry_equiv_pos_as_xyz
  x,y,z
  -x,y,-z
_cell_length_a                    39.0357
_cell_length_b                    39.4330
_cell_length_c                    28.9843
_cell_angle_alpha                 90.0000
_cell_angle_beta                  90.0788
_cell_angle_gamma                 90.0000
loop_
_atom_site_label
_atom_site_type_symbol
_atom_site_fract_x
_atom_site_fract_y
_atom_site_fract_z
_atom_site_U_iso_or_equiv
_atom_site_adp_type
_atom_site_occupancy
C1     C     0.31420   0.26258   0.23345   0.00000  Uiso   1.00
C2     C     0.34536   0.27512   0.21622   0.00000  Uiso   1.00
C3     C     0.37567   0.26233   0.23305   0.00000  Uiso   1.00
C4     C     0.37566   0.23761   0.26743   0.00000  Uiso   1.00
C5     C     0.34534   0.22490   0.28424   0.00000  Uiso   1.00
C6     C     0.31419   0.23753   0.26700   0.00000  Uiso   1.00
O1     O     0.28247   0.27359   0.21868   0.00000  Uiso   1.00
O2     O     0.34831   0.30000   0.18259   0.00000  Uiso   1.00
O3     O     0.40527   0.27501   0.21412   0.00000  Uiso   1.00
O4     O     0.40525   0.22483   0.28634   0.00000  Uiso   1.00
O5     O     0.34827   0.19997   0.31780   0.00000  Uiso   1.00
O6     O     0.28246   0.22659   0.28173   0.00000  Uiso   1.00
C7     C     0.31413   0.76240   0.73324   0.00000  Uiso   1.00
C8     C     0.34529   0.77489   0.71594   0.00000  Uiso   1.00
C9     C     0.37560   0.76206   0.73274   0.00000  Uiso   1.00
C10    C     0.37559   0.73737   0.76714   0.00000  Uiso   1.00
C11    C     0.34527   0.72470   0.78401   0.00000  Uiso   1.00
C12    C     0.31412   0.73737   0.76681   0.00000  Uiso   1.00
O7     O     0.28241   0.77347   0.71855   0.00000  Uiso   1.00
O8     O     0.34825   0.79978   0.68234   0.00000  Uiso   1.00
O9     O     0.40520   0.77473   0.71380   0.00000  Uiso   1.00
O10    O     0.40518   0.72459   0.78607   0.00000  Uiso   1.00
O11    O     0.34820   0.69981   0.81765   0.00000  Uiso   1.00
O12    O     0.28239   0.72652   0.78167   0.00000  Uiso   1.00
C25    C     1.18579   0.76278   0.73349   0.00000  Uiso   1.00
C26    C     1.15464   0.77540   0.71624   0.00000  Uiso   1.00
C27    C     1.12432   0.76269   0.73307   0.00000  Uiso   1.00
C28    C     1.12432   0.73800   0.76748   0.00000  Uiso   1.00
C29    C     1.15464   0.72522   0.78432   0.00000  Uiso   1.00
C30    C     1.18579   0.73775   0.76706   0.00000  Uiso   1.00
O25    O     1.21752   0.77367   0.71868   0.00000  Uiso   1.00
O26    O     1.15170   0.80028   0.68261   0.00000  Uiso   1.00
O27    O     1.09473   0.77543   0.71410   0.00000  Uiso   1.00
O28    O     1.09473   0.72530   0.78639   0.00000  Uiso   1.00
O29    O     1.15170   0.70033   0.81793   0.00000  Uiso   1.00
O30    O     1.21752   0.72673   0.78181   0.00000  Uiso   1.00
C31    C     1.18585   0.26270   0.23338   0.00000  Uiso   1.00
C32    C     1.15469   0.27530   0.21611   0.00000  Uiso   1.00
C33    C     1.12438   0.26256   0.23289   0.00000  Uiso   1.00
C34    C     1.12438   0.23785   0.26728   0.00000  Uiso   1.00
C35    C     1.15470   0.22509   0.28415   0.00000  Uiso   1.00
C36    C     1.18585   0.23766   0.26694   0.00000  Uiso   1.00
O31    O     1.21758   0.27365   0.21864   0.00000  Uiso   1.00
O32    O     1.15175   0.30021   0.18251   0.00000  Uiso   1.00
O33    O     1.09478   0.27528   0.21391   0.00000  Uiso   1.00
O34    O     1.09479   0.22512   0.28614   0.00000  Uiso   1.00
O35    O     1.15175   0.20018   0.31774   0.00000  Uiso   1.00
O36    O     1.21758   0.22666   0.28171   0.00000  Uiso   1.00
C49    C     0.49999   0.49961   0.95152   0.00000  Uiso   1.00
C50    C     0.49825   0.46908   0.97607   0.00000  Uiso   1.00
C53    C     0.49826   0.53014   0.02393   0.00000  Uiso   1.00
H1     H     0.49998   0.49961   0.91418   0.00000  Uiso   1.00
O49    O     0.49335   0.43820   0.95409   0.00000  Uiso   1.00
O51    O     0.49339   0.56102   0.04590   0.00000  Uiso   1.00
C55    C     1.00000   0.50031   0.95151   0.00000  Uiso   1.00
C56    C     1.00175   0.46978   0.97607   0.00000  Uiso   1.00
C59    C     1.00174   0.53084   0.02394   0.00000  Uiso   1.00
H3     H     1.00000   0.50031   0.91416   0.00000  Uiso   1.00
O53    O     1.00663   0.43890   0.95411   0.00000  Uiso   1.00
O55    O     1.00664   0.56171   0.04592   0.00000  Uiso   1.00
C61    C     0.50000  -0.00044   0.45152   0.00000  Uiso   1.00
C62    C     0.50175   0.03009   0.47607   0.00000  Uiso   1.00
C65    C     0.50175   0.96903   0.52393   0.00000  Uiso   1.00
H5     H     0.49999  -0.00044   0.41418   0.00000  Uiso   1.00
O57    O     0.50665   0.06097   0.45411   0.00000  Uiso   1.00
O59    O     0.50664   0.93815   0.54592   0.00000  Uiso   1.00
C67    C     1.00003   0.00034   0.45152   0.00000  Uiso   1.00
C68    C     1.00177   0.96981   0.47607   0.00000  Uiso   1.00
C71    C     1.00174   0.03088   0.52394   0.00000  Uiso   1.00
H7     H     1.00004   0.00035   0.41417   0.00000  Uiso   1.00
O61    O     1.00666   0.93893   0.45411   0.00000  Uiso   1.00
O63    O     1.00662   0.06176   0.54593   0.00000  Uiso   1.00
Fe9    Cu    1.25002   0.25012   0.25019   0.00000  Uiso   1.00
Fe10   Cu    1.24996   0.75009   0.75017   0.00000  Uiso   1.00
C73    C     0.44744   0.37851   0.05031   0.00000  Uiso   1.00
C74    C     0.47674   0.36196   0.06655   0.00000  Uiso   1.00
C75    C     0.47470   0.33885   0.10282   0.00000  Uiso   1.00
C76    C     0.44280   0.33186   0.12197   0.00000  Uiso   1.00
C77    C     0.41342   0.34677   0.10523   0.00000  Uiso   1.00
C78    C     0.41520   0.37073   0.06935   0.00000  Uiso   1.00
O65    O     0.45153   0.40238   0.01527   0.00000  Uiso   1.00
O66    O     0.50782   0.36897   0.04595   0.00000  Uiso   1.00
H9     H     0.49752   0.32647   0.11583   0.00000  Uiso   1.00
O67    O     0.43888   0.30974   0.15822   0.00000  Uiso   1.00
O68    O     0.38311   0.33657   0.12602   0.00000  Uiso   1.00
H10    H     0.39222   0.38293   0.05662   0.00000  Uiso   1.00
Fe13   Cu    0.39378   0.30544   0.17024   0.00000  Uiso   1.00
C79    C     0.44739   0.62080   0.94969   0.00000  Uiso   1.00
C80    C     0.47668   0.63733   0.93349   0.00000  Uiso   1.00
C81    C     0.47462   0.66048   0.89728   0.00000  Uiso   1.00
C82    C     0.44270   0.66758   0.87818   0.00000  Uiso   1.00
C83    C     0.41331   0.65273   0.89492   0.00000  Uiso   1.00
C84    C     0.41511   0.62870   0.93072   0.00000  Uiso   1.00
O69    O     0.45151   0.59685   0.98463   0.00000  Uiso   1.00
O70    O     0.50780   0.63024   0.95406   0.00000  Uiso   1.00
H11    H     0.49744   0.67279   0.88428   0.00000  Uiso   1.00
O71    O     0.43878   0.68974   0.84196   0.00000  Uiso   1.00
O72    O     0.38299   0.66309   0.87420   0.00000  Uiso   1.00
H12    H     0.39213   0.61655   0.94344   0.00000  Uiso   1.00
Fe14   Cu    0.39367   0.69420   0.82997   0.00000  Uiso   1.00
C97    C     1.02327   0.63802   0.93357   0.00000  Uiso   1.00
C98    C     1.05258   0.62147   0.94982   0.00000  Uiso   1.00
C99    C     1.08483   0.62933   0.93087   0.00000  Uiso   1.00
C100   C     1.08661   0.65337   0.89510   0.00000  Uiso   1.00
C101   C     1.05723   0.66828   0.87836   0.00000  Uiso   1.00
C102   C     1.02532   0.66121   0.89741   0.00000  Uiso   1.00
O81    O     0.99217   0.63093   0.95406   0.00000  Uiso   1.00
O82    O     1.04848   0.59753   0.98476   0.00000  Uiso   1.00
H17    H     1.10781   0.61712   0.94360   0.00000  Uiso   1.00
O83    O     1.11692   0.66366   0.87439   0.00000  Uiso   1.00
O84    O     1.06114   0.69046   0.84218   0.00000  Uiso   1.00
H18    H     1.00250   0.67357   0.88441   0.00000  Uiso   1.00
Fe17   Cu    1.10624   0.69483   0.83022   0.00000  Uiso   1.00
C103   C     1.05259   0.37914   0.05039   0.00000  Uiso   1.00
C104   C     1.02329   0.36259   0.06652   0.00000  Uiso   1.00
C105   C     1.02534   0.33942   0.10272   0.00000  Uiso   1.00
C106   C     1.05725   0.33234   0.12187   0.00000  Uiso   1.00
C107   C     1.08664   0.34724   0.10522   0.00000  Uiso   1.00
C108   C     1.08485   0.37129   0.06945   0.00000  Uiso   1.00
O85    O     1.04848   0.40308   0.01542   0.00000  Uiso   1.00
O86    O     0.99218   0.36967   0.04591   0.00000  Uiso   1.00
H19    H     1.00253   0.32704   0.11565   0.00000  Uiso   1.00
O87    O     1.06117   0.31016   0.15805   0.00000  Uiso   1.00
O88    O     1.11695   0.33693   0.12600   0.00000  Uiso   1.00
H20    H     1.10782   0.38349   0.05680   0.00000  Uiso   1.00
Fe18   Cu    1.10628   0.30575   0.17012   0.00000  Uiso   1.00
C121   C     0.44742   0.87842   0.55023   0.00000  Uiso   1.00
C122   C     0.47671   0.86185   0.56646   0.00000  Uiso   1.00
C123   C     0.47466   0.83868   0.60265   0.00000  Uiso   1.00
C124   C     0.44275   0.83165   0.62175   0.00000  Uiso   1.00
C125   C     0.41338   0.84660   0.60504   0.00000  Uiso   1.00
C126   C     0.41517   0.87062   0.56923   0.00000  Uiso   1.00
O97    O     0.45152   0.90233   0.51525   0.00000  Uiso   1.00
O98    O     0.50781   0.86892   0.54594   0.00000  Uiso   1.00
H25    H     0.49747   0.82630   0.61562   0.00000  Uiso   1.00
O99    O     0.43883   0.80949   0.65794   0.00000  Uiso   1.00
O100   O     0.38307   0.83638   0.62580   0.00000  Uiso   1.00
H26    H     0.39220   0.88284   0.55650   0.00000  Uiso   1.00
Fe21   Cu    0.39372   0.80521   0.66997   0.00000  Uiso   1.00
C127   C     0.47673   0.13730   0.43350   0.00000  Uiso   1.00
C128   C     0.44743   0.12077   0.44964   0.00000  Uiso   1.00
C129   C     0.41517   0.12868   0.43063   0.00000  Uiso   1.00
C130   C     0.41338   0.15276   0.39490   0.00000  Uiso   1.00
C131   C     0.44277   0.16763   0.37823   0.00000  Uiso   1.00
C132   C     0.47469   0.16050   0.39732   0.00000  Uiso   1.00
O101   O     0.50784   0.13019   0.45409   0.00000  Uiso   1.00
O102   O     0.45152   0.09680   0.48457   0.00000  Uiso   1.00
H27    H     0.39218   0.11651   0.44331   0.00000  Uiso   1.00
O103   O     0.38306   0.16314   0.37420   0.00000  Uiso   1.00
O104   O     0.43886   0.18986   0.34209   0.00000  Uiso   1.00
H28    H     0.49752   0.17284   0.38439   0.00000  Uiso   1.00
Fe22   Cu    0.39374   0.19434   0.33011   0.00000  Uiso   1.00
C145   C     1.05260   0.12148   0.44980   0.00000  Uiso   1.00
C146   C     1.02331   0.13804   0.43354   0.00000  Uiso   1.00
C147   C     1.02536   0.16116   0.39730   0.00000  Uiso   1.00
C148   C     1.05727   0.16819   0.37823   0.00000  Uiso   1.00
C149   C     1.08665   0.15329   0.39499   0.00000  Uiso   1.00
C150   C     1.08486   0.12929   0.43081   0.00000  Uiso   1.00
O113   O     1.04848   0.09757   0.48479   0.00000  Uiso   1.00
O114   O     0.99220   0.13098   0.45405   0.00000  Uiso   1.00
H33    H     1.00254   0.17352   0.38428   0.00000  Uiso   1.00
O115   O     1.06118   0.19033   0.34200   0.00000  Uiso   1.00
O116   O     1.11696   0.16356   0.37426   0.00000  Uiso   1.00
H34    H     1.10783   0.11709   0.44358   0.00000  Uiso   1.00
Fe25   Cu    1.10629   0.19468   0.33003   0.00000  Uiso   1.00
C151   C     1.05257   0.87918   0.55042   0.00000  Uiso   1.00
C152   C     1.02327   0.86265   0.56657   0.00000  Uiso   1.00
C153   C     1.02530   0.83951   0.60281   0.00000  Uiso   1.00
C154   C     1.05721   0.83244   0.62196   0.00000  Uiso   1.00
C155   C     1.08661   0.84729   0.60527   0.00000  Uiso   1.00
C156   C     1.08483   0.87132   0.56947   0.00000  Uiso   1.00
O117   O     1.04847   0.90311   0.51545   0.00000  Uiso   1.00
O118   O     0.99217   0.86971   0.54592   0.00000  Uiso   1.00
H35    H     1.00247   0.82718   0.61576   0.00000  Uiso   1.00
O119   O     1.06112   0.81027   0.65818   0.00000  Uiso   1.00
O120   O     1.11691   0.83697   0.62605   0.00000  Uiso   1.00
H36    H     1.10781   0.88349   0.55679   0.00000  Uiso   1.00
Fe26   Cu    1.10623   0.80585   0.67023   0.00000  Uiso   1.00
Fe1    Fe    0.50000   0.40324   0.00000   0.00000  Uiso   1.00
Fe2    Fe    0.50000   0.59598   0.00000   0.00000  Uiso   1.00
Fe3    Fe    1.00000   0.59667   0.00000   0.00000  Uiso   1.00
Fe4    Fe    1.00000   0.40394   0.00000   0.00000  Uiso   1.00
Fe5    Fe    0.50000   0.90319   0.50000   0.00000  Uiso   1.00
Fe6    Fe    0.50000   0.09593   0.50000   0.00000  Uiso   1.00
Fe7    Fe    1.00000   0.09671   0.50000   0.00000  Uiso   1.00
Fe8    Fe    1.00000   0.90398   0.50000   0.00000  Uiso   1.00
loop_
_geom_bond_atom_site_label_1
_geom_bond_atom_site_label_2
_geom_bond_distance
_geom_bond_site_symmetry_2
_ccdc_geom_bond_type
C1     C2      1.405   .     A
C1     C6      1.386   .     A
C1     O1      1.380   .     S
C2     C3      1.375   .     A
C2     O2      1.388   .     S
C3     C4      1.394   .     A
C3     O3      1.374   .     S
C4     C5      1.375   .     A
C4     O4      1.374   .     S
C5     C6      1.405   .     A
C5     O5      1.388   .     S
C6     O6      1.380   .     S
O1     Fe9     1.816   1_455 S
O2     Fe13    1.824   .     S
O3     Fe13    1.805   .     S
O4     Fe22    1.805   .     S
O5     Fe22    1.824   .     S
O6     Fe9     1.816   1_455 S
C7     C8      1.405   .     A
C7     C12     1.386   .     A
C7     O7      1.380   .     S
C8     C9      1.375   .     A
C8     O8      1.388   .     S
C9     C10     1.394   .     A
C9     O9      1.374   .     S
C10    C11     1.375   .     A
C10    O10     1.374   .     S
C11    C12     1.405   .     A
C11    O11     1.388   .     S
C12    O12     1.380   .     S
O7     Fe10    1.816   1_455 S
O8     Fe21    1.824   .     S
O9     Fe21    1.805   .     S
O10    Fe14    1.805   .     S
O11    Fe14    1.824   .     S
O12    Fe10    1.816   1_455 S
C25    C26     1.405   .     A
C25    C30     1.386   .     A
C25    O25     1.380   .     S
C26    C27     1.375   .     A
C26    O26     1.388   .     S
C27    C28     1.394   .     A
C27    O27     1.374   .     S
C28    C29     1.375   .     A
C28    O28     1.374   .     S
C29    C30     1.405   .     A
C29    O29     1.388   .     S
C30    O30     1.380   .     S
O25    Fe10    1.816   .     S
O26    Fe26    1.824   .     S
O27    Fe26    1.805   .     S
O28    Fe17    1.805   .     S
O29    Fe17    1.823   .     S
O30    Fe10    1.816   .     S
C31    C32     1.405   .     A
C31    C36     1.386   .     A
C31    O31     1.380   .     S
C32    C33     1.375   .     A
C32    O32     1.388   .     S
C33    C34     1.394   .     A
C33    O33     1.374   .     S
C34    C35     1.375   .     A
C34    O34     1.374   .     S
C35    C36     1.405   .     A
C35    O35     1.388   .     S
C36    O36     1.380   .     S
O31    Fe9     1.816   .     S
O32    Fe18    1.824   .     S
O33    Fe18    1.805   .     S
O34    Fe25    1.805   .     S
O35    Fe25    1.824   .     S
O36    Fe9     1.816   .     S
C49    C50     1.400   .     A
C49    C53     1.400   2_656 A
C49    H1      1.082   .     S
C50    C50     1.394   2_657 A
C50    O49     1.387   .     S
C53    C49     1.400   2_656 A
C53    C53     1.394   2_655 A
C53    O51     1.387   .     S
O49    Fe1     1.933   1_556 S
O51    Fe2     1.934   .     S
C55    C56     1.400   .     A
C55    C59     1.400   2_756 A
C55    H3      1.083   .     S
C56    C56     1.394   2_757 A
C56    O53     1.387   .     S
C59    C55     1.400   2_756 A
C59    C59     1.394   2_755 A
C59    O55     1.387   .     S
O53    Fe4     1.933   1_556 S
O55    Fe3     1.933   .     S
C61    C62     1.400   .     A
C61    C65     1.400   2_646 A
C61    H5      1.082   .     S
C62    C62     1.394   2_656 A
C62    O57     1.387   .     S
C65    C61     1.400   2_666 A
C65    C65     1.394   2_656 A
C65    O59     1.387   .     S
O57    Fe6     1.933   .     S
O59    Fe5     1.934   .     S
C67    C68     1.400   1_545 A
C67    C71     1.400   2_756 A
C67    H7      1.083   .     S
C68    C67     1.400   1_565 A
C68    C68     1.394   2_756 A
C68    O61     1.387   .     S
C71    C67     1.400   2_756 A
C71    C71     1.394   2_756 A
C71    O63     1.387   .     S
O61    Fe8     1.933   .     S
O63    Fe7     1.934   .     S
Fe9    O6      1.816   1_655 S
Fe9    O1      1.816   1_655 S
Fe10   O7      1.816   1_655 S
Fe10   O12     1.816   1_655 S
C73    C74     1.398   .     A
C73    C78     1.409   .     A
C73    O65     1.394   .     S
C74    C75     1.394   .     A
C74    O66     1.381   .     S
C75    C76     1.392   .     A
C75    H9      1.083   .     S
C76    C77     1.377   .     A
C76    O67     1.374   .     S
C77    C78     1.407   .     A
C77    O68     1.388   .     S
C78    H10     1.082   .     S
O65    Fe1     1.944   .     S
O66    Fe1     1.921   .     S
O67    Fe13    1.803   .     S
O68    Fe13    1.822   .     S
C79    C80     1.398   .     A
C79    C84     1.409   .     A
C79    O69     1.394   .     S
C80    C81     1.393   .     A
C80    O70     1.381   .     S
C81    C82     1.391   .     A
C81    H11     1.083   .     S
C82    C83     1.377   .     A
C82    O71     1.374   .     S
C83    C84     1.407   .     A
C83    O72     1.388   .     S
C84    H12     1.082   .     S
O69    Fe2     1.944   1_556 S
O70    Fe2     1.921   1_556 S
O71    Fe14    1.803   .     S
O72    Fe14    1.823   .     S
C97    C98     1.398   .     A
C97    C102    1.393   .     A
C97    O81     1.381   .     S
C98    C99     1.409   .     A
C98    O82     1.394   .     S
C99    C100    1.407   .     A
C99    H17     1.082   .     S
C100   C101    1.377   .     A
C100   O83     1.388   .     S
C101   C102    1.391   .     A
C101   O84     1.374   .     S
C102   H18     1.083   .     S
O81    Fe3     1.921   1_556 S
O82    Fe3     1.944   1_556 S
O83    Fe17    1.822   .     S
O84    Fe17    1.803   .     S
C103   C104    1.398   .     A
C103   C108    1.409   .     A
C103   O85     1.394   .     S
C104   C105    1.394   .     A
C104   O86     1.381   .     S
C105   C106    1.391   .     A
C105   H19     1.083   .     S
C106   C107    1.377   .     A
C106   O87     1.374   .     S
C107   C108    1.407   .     A
C107   O88     1.388   .     S
C108   H20     1.082   .     S
O85    Fe4     1.944   .     S
O86    Fe4     1.921   .     S
O87    Fe18    1.803   .     S
O88    Fe18    1.822   .     S
C121   C122    1.398   .     A
C121   C126    1.409   .     A
C121   O97     1.394   .     S
C122   C123    1.394   .     A
C122   O98     1.381   .     S
C123   C124    1.391   .     A
C123   H25     1.083   .     S
C124   C125    1.377   .     A
C124   O99     1.374   .     S
C125   C126    1.407   .     A
C125   O100    1.388   .     S
C126   H26     1.082   .     S
O97    Fe5     1.944   .     S
O98    Fe5     1.921   .     S
O99    Fe21    1.803   .     S
O100   Fe21    1.822   .     S
C127   C128    1.398   .     A
C127   C132    1.394   .     A
C127   O101    1.381   .     S
C128   C129    1.409   .     A
C128   O102    1.394   .     S
C129   C130    1.407   .     A
C129   H27     1.082   .     S
C130   C131    1.377   .     A
C130   O103    1.388   .     S
C131   C132    1.391   .     A
C131   O104    1.374   .     S
C132   H28     1.083   .     S
O101   Fe6     1.921   .     S
O102   Fe6     1.944   .     S
O103   Fe22    1.823   .     S
O104   Fe22    1.803   .     S
C145   C146    1.398   .     A
C145   C150    1.409   .     A
C145   O113    1.394   .     S
C146   C147    1.393   .     A
C146   O114    1.381   .     S
C147   C148    1.391   .     A
C147   H33     1.083   .     S
C148   C149    1.377   .     A
C148   O115    1.374   .     S
C149   C150    1.407   .     A
C149   O116    1.388   .     S
C150   H34     1.082   .     S
O113   Fe7     1.944   .     S
O114   Fe7     1.921   .     S
O115   Fe25    1.803   .     S
O116   Fe25    1.823   .     S
C151   C152    1.398   .     A
C151   C156    1.409   .     A
C151   O117    1.394   .     S
C152   C153    1.394   .     A
C152   O118    1.381   .     S
C153   C154    1.391   .     A
C153   H35     1.083   .     S
C154   C155    1.377   .     A
C154   O119    1.374   .     S
C155   C156    1.407   .     A
C155   O120    1.388   .     S
C156   H36     1.082   .     S
O117   Fe8     1.944   .     S
O118   Fe8     1.921   .     S
O119   Fe26    1.803   .     S
O120   Fe26    1.823   .     S
Fe1    O49     1.933   1_554 S
Fe1    O49     1.933   2_656 S
Fe1    O65     1.944   2_655 S
Fe1    O66     1.921   2_655 S
Fe2    O51     1.934   2_655 S
Fe2    O69     1.944   1_554 S
Fe2    O69     1.944   2_656 S
Fe2    O70     1.921   1_554 S
Fe2    O70     1.921   2_656 S
Fe3    O55     1.933   2_755 S
Fe3    O81     1.921   1_554 S
Fe3    O81     1.921   2_756 S
Fe3    O82     1.944   1_554 S
Fe3    O82     1.944   2_756 S
Fe4    O53     1.933   1_554 S
Fe4    O53     1.933   2_756 S
Fe4    O85     1.944   2_755 S
Fe4    O86     1.921   2_755 S
Fe5    O59     1.934   2_656 S
Fe5    O97     1.944   2_656 S
Fe5    O98     1.921   2_656 S
Fe6    O57     1.933   2_656 S
Fe6    O101    1.921   2_656 S
Fe6    O102    1.944   2_656 S
Fe7    O63     1.934   2_756 S
Fe7    O113    1.944   2_756 S
Fe7    O114    1.921   2_756 S
Fe8    O61     1.933   2_756 S
Fe8    O117    1.944   2_756 S
Fe8    O118    1.921   2_756 S
