data_nod-spacer-TP_O-Feoct
_audit_creation_date              2021-11-06
_audit_creation_method            'Materials Studio'
_symmetry_space_group_name_H-M    'CCCM'
_symmetry_Int_Tables_number       66
_symmetry_cell_setting            orthorhombic
loop_
_symmetry_equiv_pos_as_xyz
  x,y,z
  -x,-y,z
  -x,y,-z+1/2
  x,-y,-z+1/2
  -x,-y,-z
  x,y,-z
  x,-y,z+1/2
  -x,y,z+1/2
  x+1/2,y+1/2,z
  -x+1/2,-y+1/2,z
  -x+1/2,y+1/2,-z+1/2
  x+1/2,-y+1/2,-z+1/2
  -x+1/2,-y+1/2,-z
  x+1/2,y+1/2,-z
  x+1/2,-y+1/2,z+1/2
  -x+1/2,y+1/2,z+1/2
_cell_length_a                    40.7180
_cell_length_b                    38.2332
_cell_length_c                    54.4586
_cell_angle_alpha                 90.0000
_cell_angle_beta                  90.0000
_cell_angle_gamma                 90.0000
loop_
_atom_site_label
_atom_site_type_symbol
_atom_site_fract_x
_atom_site_fract_y
_atom_site_fract_z
_atom_site_U_iso_or_equiv
_atom_site_adp_type
_atom_site_occupancy
C1     C     0.23947   0.26509   0.09089   0.00000  Uiso   1.00
C3     C     0.27042   0.21946   0.11358   0.00000  Uiso   1.00
C4     C     0.25895   0.23409   0.13611   0.00000  Uiso   1.00
C7     C     0.26508   0.21573   0.15827   0.00000  Uiso   1.00
C8     C     0.28444   0.18601   0.15833   0.00000  Uiso   1.00
C9     C     0.29817   0.17360   0.13726   0.00000  Uiso   1.00
C10    C     0.29129   0.18945   0.11476   0.00000  Uiso   1.00
C11    C     0.22971   0.27940   0.06791   0.00000  Uiso   1.00
C12    C     0.24011   0.26435   0.04604   0.00000  Uiso   1.00
H1     H     0.25443   0.22314   0.17564   0.00000  Uiso   1.00
O1     O     0.29090   0.16754   0.17949   0.00000  Uiso   1.00
O2     O     0.31806   0.14437   0.13977   0.00000  Uiso   1.00
H2     H     0.30252   0.17767   0.09891   0.00000  Uiso   1.00
H3     H     0.21442   0.30221   0.06614   0.00000  Uiso   1.00
O3     O     0.23126   0.27729   0.02328   0.00000  Uiso   1.00
C146   C     0.47042   0.98184   0.24886   0.00000  Uiso   1.00
O49    O     0.44049   0.96509   0.24566   0.00000  Uiso   1.00
C169   C     0.38355   0.03772   0.21183   0.00000  Uiso   1.00
C170   C     0.36704   0.05033   0.23253   0.00000  Uiso   1.00
C171   C     0.34492   0.07806   0.23056   0.00000  Uiso   1.00
C172   C     0.33943   0.09289   0.20756   0.00000  Uiso   1.00
C173   C     0.35494   0.08033   0.18690   0.00000  Uiso   1.00
C174   C     0.37739   0.05253   0.18864   0.00000  Uiso   1.00
O65    O     0.40600   0.01065   0.21514   0.00000  Uiso   1.00
O66    O     0.37333   0.03497   0.25502   0.00000  Uiso   1.00
H57    H     0.33242   0.08805   0.24664   0.00000  Uiso   1.00
O67    O     0.31856   0.12078   0.20422   0.00000  Uiso   1.00
O68    O     0.34707   0.09696   0.16506   0.00000  Uiso   1.00
H58    H     0.38987   0.04287   0.17246   0.00000  Uiso   1.00
Fe13   Cu    0.31866   0.13234   0.17207   0.00000  Uiso   1.00
Fe1    Fe    0.40663   0.00000   0.25000   0.00000  Uiso   1.00
C145   C     0.50000   0.96324   0.25000   0.00000  Uiso   1.00
H49    H     0.50000   0.93493   0.25000   0.00000  Uiso   1.00
Fe9    Cu    0.25000   0.25000   1.00000   0.00000  Uiso   1.00
loop_
_geom_bond_atom_site_label_1
_geom_bond_atom_site_label_2
_geom_bond_distance
_geom_bond_site_symmetry_2
_ccdc_geom_bond_type
C1     C1      1.438   10    A
C1     C3      1.427   10    A
C1     C11     1.423   .     A
C3     C1      1.427   10    A
C3     C4      1.427   .     A
C3     C10     1.429   .     A
C4     C4      1.418   10    A
C4     C7      1.418   .     A
C7     C8      1.383   .     A
C7     H1      1.078   .     S
C8     C9      1.361   .     A
C8     O1      1.377   .     S
C9     C10     1.395   .     A
C9     O2      1.387   .     S
C10    H2      1.076   .     S
C11    C12     1.389   .     A
C11    H3      1.076   .     S
C12    C12     1.361   10    A
C12    O3      1.382   .     S
O1     Fe13    1.804   .     S
O2     Fe13    1.818   .     S
O3     Fe9     1.811   1_554 S
C146   C145    1.400   .     A
C146   C146    1.394   4_575 A
C146   O49     1.388   .     S
O49    Fe1     1.934   1_565 S
C169   C170    1.398   .     A
C169   C174    1.407   .     A
C169   O65     1.393   .     S
C170   C171    1.395   .     A
C170   O66     1.382   .     S
C171   C172    1.393   .     A
C171   H57     1.083   .     S
C172   C173    1.377   .     A
C172   O67     1.376   .     S
C173   C174    1.405   .     A
C173   O68     1.386   .     S
C174   H58     1.082   .     S
O65    Fe1     1.942   .     S
O66    Fe1     1.924   .     S
O67    Fe13    1.806   .     S
O68    Fe13    1.820   .     S
Fe1    O49     1.934   1_545 S
Fe1    O49     1.934   4_565 S
Fe1    O65     1.942   4     S
Fe1    O66     1.924   4     S
C145   C146    1.400   3_655 A
C145   H49     1.082   .     S
Fe9    O3      1.811   1_556 S
Fe9    O3      1.811   6_556 S
Fe9    O3      1.811   10_556 S
Fe9    O3      1.811   13_556 S
