data_nod-spacer-TN_O-Feoct
_audit_creation_date              2021-11-06
_audit_creation_method            'Materials Studio'
_symmetry_space_group_name_H-M    'P2'
_symmetry_Int_Tables_number       3
_symmetry_cell_setting            monoclinic
loop_
_symmetry_equiv_pos_as_xyz
  x,y,z
  -x,y,-z
_cell_length_a                    69.4036
_cell_length_b                    47.3116
_cell_length_c                    43.7377
_cell_angle_alpha                 90.0000
_cell_angle_beta                  90.0224
_cell_angle_gamma                 90.0000
loop_
_atom_site_label
_atom_site_type_symbol
_atom_site_fract_x
_atom_site_fract_y
_atom_site_fract_z
_atom_site_U_iso_or_equiv
_atom_site_adp_type
_atom_site_occupancy
C1     C     0.35643   0.24064   0.26283   0.00000  Uiso   1.00
C2     C     0.35643   0.25937   0.23711   0.00000  Uiso   1.00
C3     C     0.37426   0.26906   0.22456   0.00000  Uiso   1.00
C4     C     0.39189   0.25859   0.23665   0.00000  Uiso   1.00
C5     C     0.39189   0.24143   0.26333   0.00000  Uiso   1.00
C6     C     0.37426   0.23096   0.27540   0.00000  Uiso   1.00
C7     C     0.40927   0.26491   0.22112   0.00000  Uiso   1.00
C8     C     0.40978   0.28374   0.19669   0.00000  Uiso   1.00
C9     C     0.39265   0.29664   0.18655   0.00000  Uiso   1.00
C10    C     0.37513   0.28921   0.20033   0.00000  Uiso   1.00
C11    C     0.33846   0.23280   0.27587   0.00000  Uiso   1.00
C12    C     0.32098   0.24146   0.26314   0.00000  Uiso   1.00
C13    C     0.32098   0.25854   0.23678   0.00000  Uiso   1.00
C14    C     0.33846   0.26720   0.22406   0.00000  Uiso   1.00
C15    C     0.37513   0.21082   0.29964   0.00000  Uiso   1.00
C16    C     0.39264   0.20340   0.31345   0.00000  Uiso   1.00
C17    C     0.40977   0.21630   0.30331   0.00000  Uiso   1.00
C18    C     0.40926   0.23512   0.27888   0.00000  Uiso   1.00
C19    C     0.42734   0.20995   0.31762   0.00000  Uiso   1.00
C20    C     0.42769   0.19058   0.34152   0.00000  Uiso   1.00
C21    C     0.41117   0.17749   0.35137   0.00000  Uiso   1.00
C22    C     0.39340   0.18365   0.33768   0.00000  Uiso   1.00
C23    C     0.39342   0.31640   0.16232   0.00000  Uiso   1.00
C24    C     0.41119   0.32256   0.14866   0.00000  Uiso   1.00
C25    C     0.42771   0.30947   0.15852   0.00000  Uiso   1.00
C26    C     0.42736   0.29010   0.18241   0.00000  Uiso   1.00
H1     H     0.42268   0.25474   0.22697   0.00000  Uiso   1.00
H2     H     0.36252   0.29993   0.19191   0.00000  Uiso   1.00
H3     H     0.33750   0.22040   0.29644   0.00000  Uiso   1.00
H4     H     0.33750   0.27959   0.20348   0.00000  Uiso   1.00
H5     H     0.36251   0.20010   0.30805   0.00000  Uiso   1.00
H6     H     0.42268   0.24530   0.27304   0.00000  Uiso   1.00
H7     H     0.44067   0.21973   0.31022   0.00000  Uiso   1.00
O1     O     0.44445   0.18344   0.35644   0.00000  Uiso   1.00
O2     O     0.41341   0.15844   0.37520   0.00000  Uiso   1.00
H8     H     0.38045   0.17336   0.34589   0.00000  Uiso   1.00
H9     H     0.38048   0.32670   0.15410   0.00000  Uiso   1.00
O3     O     0.41343   0.34161   0.12483   0.00000  Uiso   1.00
O4     O     0.44447   0.31661   0.14361   0.00000  Uiso   1.00
H10    H     0.44068   0.28031   0.18982   0.00000  Uiso   1.00
C27    C     0.30334   0.26689   0.22362   0.00000  Uiso   1.00
C28    C     0.28608   0.25824   0.23706   0.00000  Uiso   1.00
C29    C     0.28609   0.24175   0.26286   0.00000  Uiso   1.00
C30    C     0.30335   0.23311   0.27631   0.00000  Uiso   1.00
H11    H     0.30297   0.28002   0.20334   0.00000  Uiso   1.00
O5     O     0.26822   0.26560   0.22562   0.00000  Uiso   1.00
O6     O     0.26823   0.23441   0.27432   0.00000  Uiso   1.00
H12    H     0.30298   0.21998   0.29660   0.00000  Uiso   1.00
C31    C     0.35650   0.74064   0.76282   0.00000  Uiso   1.00
C32    C     0.35650   0.75938   0.73712   0.00000  Uiso   1.00
C33    C     0.37432   0.76909   0.72458   0.00000  Uiso   1.00
C34    C     0.39196   0.75861   0.73667   0.00000  Uiso   1.00
C35    C     0.39196   0.74142   0.76332   0.00000  Uiso   1.00
C36    C     0.37432   0.73094   0.77538   0.00000  Uiso   1.00
C37    C     0.40934   0.76495   0.72114   0.00000  Uiso   1.00
C38    C     0.40984   0.78381   0.69675   0.00000  Uiso   1.00
C39    C     0.39271   0.79672   0.68662   0.00000  Uiso   1.00
C40    C     0.37520   0.78927   0.70038   0.00000  Uiso   1.00
C41    C     0.33853   0.73280   0.77586   0.00000  Uiso   1.00
C42    C     0.32105   0.74146   0.76314   0.00000  Uiso   1.00
C43    C     0.32105   0.75855   0.73679   0.00000  Uiso   1.00
C44    C     0.33853   0.76721   0.72407   0.00000  Uiso   1.00
C45    C     0.37519   0.71078   0.79959   0.00000  Uiso   1.00
C46    C     0.39270   0.70334   0.81338   0.00000  Uiso   1.00
C47    C     0.40983   0.71624   0.80327   0.00000  Uiso   1.00
C48    C     0.40933   0.73509   0.77887   0.00000  Uiso   1.00
C49    C     0.42740   0.70986   0.81757   0.00000  Uiso   1.00
C50    C     0.42774   0.69047   0.84144   0.00000  Uiso   1.00
C51    C     0.41122   0.67738   0.85128   0.00000  Uiso   1.00
C52    C     0.39345   0.68356   0.83759   0.00000  Uiso   1.00
C53    C     0.39347   0.81650   0.66242   0.00000  Uiso   1.00
C54    C     0.41124   0.82268   0.64875   0.00000  Uiso   1.00
C55    C     0.42776   0.80959   0.65860   0.00000  Uiso   1.00
C56    C     0.42742   0.79019   0.68247   0.00000  Uiso   1.00
H13    H     0.42275   0.75478   0.72699   0.00000  Uiso   1.00
H14    H     0.36258   0.79998   0.69198   0.00000  Uiso   1.00
H15    H     0.33757   0.72039   0.79642   0.00000  Uiso   1.00
H16    H     0.33757   0.77962   0.70350   0.00000  Uiso   1.00
H17    H     0.36257   0.70006   0.80799   0.00000  Uiso   1.00
H18    H     0.42275   0.74527   0.77304   0.00000  Uiso   1.00
H19    H     0.44073   0.71964   0.81019   0.00000  Uiso   1.00
O7     O     0.44450   0.68330   0.85634   0.00000  Uiso   1.00
O8     O     0.41345   0.65832   0.87509   0.00000  Uiso   1.00
H20    H     0.38050   0.67328   0.84580   0.00000  Uiso   1.00
H21    H     0.38052   0.82679   0.65419   0.00000  Uiso   1.00
O9     O     0.41348   0.84174   0.62494   0.00000  Uiso   1.00
O10    O     0.44452   0.81675   0.64370   0.00000  Uiso   1.00
H22    H     0.44074   0.78040   0.68986   0.00000  Uiso   1.00
C57    C     0.30341   0.76691   0.72363   0.00000  Uiso   1.00
C58    C     0.28615   0.75826   0.73708   0.00000  Uiso   1.00
C59    C     0.28615   0.74176   0.76287   0.00000  Uiso   1.00
C60    C     0.30342   0.73311   0.77631   0.00000  Uiso   1.00
H23    H     0.30303   0.78002   0.70333   0.00000  Uiso   1.00
O11    O     0.26829   0.76561   0.72563   0.00000  Uiso   1.00
O12    O     0.26830   0.73443   0.77434   0.00000  Uiso   1.00
H24    H     0.30304   0.72000   0.79661   0.00000  Uiso   1.00
C121   C     1.14357   0.74062   0.76290   0.00000  Uiso   1.00
C122   C     1.14356   0.75934   0.73717   0.00000  Uiso   1.00
C123   C     1.12573   0.76903   0.72460   0.00000  Uiso   1.00
C124   C     1.10810   0.75854   0.73667   0.00000  Uiso   1.00
C125   C     1.10810   0.74138   0.76335   0.00000  Uiso   1.00
C126   C     1.12574   0.73093   0.77546   0.00000  Uiso   1.00
C127   C     1.09072   0.76485   0.72112   0.00000  Uiso   1.00
C128   C     1.09022   0.78369   0.69671   0.00000  Uiso   1.00
C129   C     1.10734   0.79661   0.68660   0.00000  Uiso   1.00
C130   C     1.12486   0.78918   0.70039   0.00000  Uiso   1.00
C131   C     1.16154   0.73280   0.77594   0.00000  Uiso   1.00
C132   C     1.17902   0.74147   0.76322   0.00000  Uiso   1.00
C133   C     1.17901   0.75853   0.73685   0.00000  Uiso   1.00
C134   C     1.16152   0.76717   0.72412   0.00000  Uiso   1.00
C135   C     1.12487   0.71080   0.79970   0.00000  Uiso   1.00
C136   C     1.10736   0.70337   0.81347   0.00000  Uiso   1.00
C137   C     1.09023   0.71625   0.80331   0.00000  Uiso   1.00
C138   C     1.09073   0.73506   0.77888   0.00000  Uiso   1.00
C139   C     1.07265   0.70988   0.81760   0.00000  Uiso   1.00
C140   C     1.07230   0.69052   0.84150   0.00000  Uiso   1.00
C141   C     1.08882   0.67745   0.85138   0.00000  Uiso   1.00
C142   C     1.10660   0.68362   0.83771   0.00000  Uiso   1.00
C143   C     1.10658   0.81639   0.66239   0.00000  Uiso   1.00
C144   C     1.08880   0.82255   0.64870   0.00000  Uiso   1.00
C145   C     1.07229   0.80944   0.65853   0.00000  Uiso   1.00
C146   C     1.07264   0.79005   0.68241   0.00000  Uiso   1.00
H49    H     1.07731   0.75466   0.72695   0.00000  Uiso   1.00
H50    H     1.13747   0.79992   0.69200   0.00000  Uiso   1.00
H51    H     1.16251   0.72039   0.79651   0.00000  Uiso   1.00
H52    H     1.16248   0.77955   0.70354   0.00000  Uiso   1.00
H53    H     1.13749   0.70011   0.80814   0.00000  Uiso   1.00
H54    H     1.07731   0.74522   0.77302   0.00000  Uiso   1.00
H55    H     1.05932   0.71965   0.81017   0.00000  Uiso   1.00
O25    O     1.05554   0.68338   0.85640   0.00000  Uiso   1.00
O26    O     1.08658   0.65842   0.87522   0.00000  Uiso   1.00
H56    H     1.11954   0.67334   0.84596   0.00000  Uiso   1.00
H57    H     1.11952   0.82669   0.65418   0.00000  Uiso   1.00
O27    O     1.08656   0.84161   0.62488   0.00000  Uiso   1.00
O28    O     1.05552   0.81658   0.64361   0.00000  Uiso   1.00
H58    H     1.05931   0.78025   0.68979   0.00000  Uiso   1.00
C147   C     1.19664   0.76690   0.72368   0.00000  Uiso   1.00
C148   C     1.21391   0.75827   0.73712   0.00000  Uiso   1.00
C149   C     1.21392   0.74179   0.76293   0.00000  Uiso   1.00
C150   C     1.19666   0.73314   0.77638   0.00000  Uiso   1.00
H59    H     1.19700   0.78002   0.70338   0.00000  Uiso   1.00
O29    O     1.23176   0.76563   0.72567   0.00000  Uiso   1.00
O30    O     1.23178   0.73445   0.77438   0.00000  Uiso   1.00
H60    H     1.19705   0.72003   0.79669   0.00000  Uiso   1.00
C151   C     1.14351   0.24060   0.26288   0.00000  Uiso   1.00
C152   C     1.14351   0.25935   0.23718   0.00000  Uiso   1.00
C153   C     1.12568   0.26905   0.22462   0.00000  Uiso   1.00
C154   C     1.10804   0.25855   0.23668   0.00000  Uiso   1.00
C155   C     1.10805   0.24135   0.26333   0.00000  Uiso   1.00
C156   C     1.12569   0.23089   0.27542   0.00000  Uiso   1.00
C157   C     1.09067   0.26487   0.22112   0.00000  Uiso   1.00
C158   C     1.09017   0.28373   0.19673   0.00000  Uiso   1.00
C159   C     1.10729   0.29666   0.18663   0.00000  Uiso   1.00
C160   C     1.12480   0.28923   0.20043   0.00000  Uiso   1.00
C161   C     1.16148   0.23277   0.27593   0.00000  Uiso   1.00
C162   C     1.17896   0.24144   0.26321   0.00000  Uiso   1.00
C163   C     1.17895   0.25854   0.23686   0.00000  Uiso   1.00
C164   C     1.16147   0.26719   0.22414   0.00000  Uiso   1.00
C165   C     1.12482   0.21073   0.29964   0.00000  Uiso   1.00
C166   C     1.10731   0.20329   0.31342   0.00000  Uiso   1.00
C167   C     1.09018   0.21618   0.30327   0.00000  Uiso   1.00
C168   C     1.09067   0.23501   0.27886   0.00000  Uiso   1.00
C169   C     1.07260   0.20980   0.31756   0.00000  Uiso   1.00
C170   C     1.07226   0.19042   0.34144   0.00000  Uiso   1.00
C171   C     1.08878   0.17735   0.35131   0.00000  Uiso   1.00
C172   C     1.10656   0.18353   0.33764   0.00000  Uiso   1.00
C173   C     1.10654   0.31645   0.16244   0.00000  Uiso   1.00
C174   C     1.08876   0.32263   0.14875   0.00000  Uiso   1.00
C175   C     1.07225   0.30952   0.15857   0.00000  Uiso   1.00
C176   C     1.07259   0.29011   0.18242   0.00000  Uiso   1.00
H61    H     1.07726   0.25468   0.22694   0.00000  Uiso   1.00
H62    H     1.13741   0.29998   0.19207   0.00000  Uiso   1.00
H63    H     1.16246   0.22033   0.29647   0.00000  Uiso   1.00
H64    H     1.16242   0.27959   0.20357   0.00000  Uiso   1.00
H65    H     1.13744   0.20003   0.30806   0.00000  Uiso   1.00
H66    H     1.07725   0.24517   0.27300   0.00000  Uiso   1.00
H67    H     1.05927   0.21957   0.31015   0.00000  Uiso   1.00
O31    O     1.05550   0.18325   0.35634   0.00000  Uiso   1.00
O32    O     1.08656   0.15830   0.37514   0.00000  Uiso   1.00
H68    H     1.11951   0.17325   0.34587   0.00000  Uiso   1.00
H69    H     1.11948   0.32676   0.15425   0.00000  Uiso   1.00
O33    O     1.08653   0.34171   0.12495   0.00000  Uiso   1.00
O34    O     1.05549   0.31669   0.14366   0.00000  Uiso   1.00
H70    H     1.05926   0.28031   0.18979   0.00000  Uiso   1.00
C177   C     1.19658   0.26692   0.22370   0.00000  Uiso   1.00
C178   C     1.21385   0.25827   0.23713   0.00000  Uiso   1.00
C179   C     1.21386   0.24176   0.26291   0.00000  Uiso   1.00
C180   C     1.19660   0.23309   0.27635   0.00000  Uiso   1.00
H71    H     1.19695   0.28004   0.20340   0.00000  Uiso   1.00
O35    O     1.23170   0.26563   0.22567   0.00000  Uiso   1.00
O36    O     1.23172   0.23442   0.27435   0.00000  Uiso   1.00
H72    H     1.19699   0.21999   0.29666   0.00000  Uiso   1.00
C241   C     0.49999   0.49996   0.96787   0.00000  Uiso   1.00
C242   C     0.49907   0.47451   0.98413   0.00000  Uiso   1.00
C245   C     0.49908   0.52541   0.01587   0.00000  Uiso   1.00
H97    H     0.49996   0.49996   0.94312   0.00000  Uiso   1.00
O49    O     0.49651   0.44877   0.96950   0.00000  Uiso   1.00
O51    O     0.49652   0.55116   0.03050   0.00000  Uiso   1.00
C247   C     1.00000   0.50003   0.96787   0.00000  Uiso   1.00
C248   C     1.00092   0.47458   0.98413   0.00000  Uiso   1.00
C251   C     1.00092   0.52548   0.01587   0.00000  Uiso   1.00
H99    H     1.00000   0.50003   0.94312   0.00000  Uiso   1.00
O53    O     1.00349   0.44883   0.96950   0.00000  Uiso   1.00
O55    O     1.00348   0.55122   0.03050   0.00000  Uiso   1.00
C253   C     0.50000   0.00002   0.46787   0.00000  Uiso   1.00
C254   C     0.50092   0.02547   0.48413   0.00000  Uiso   1.00
C257   C     0.50092   0.97457   0.51587   0.00000  Uiso   1.00
H101   H     0.50001   0.00001   0.44312   0.00000  Uiso   1.00
O57    O     0.50348   0.05121   0.46950   0.00000  Uiso   1.00
O59    O     0.50349   0.94882   0.53050   0.00000  Uiso   1.00
C259   C     1.00001   0.99997   0.46787   0.00000  Uiso   1.00
C260   C     1.00093   0.97452   0.48413   0.00000  Uiso   1.00
C263   C     1.00092   0.02542   0.51587   0.00000  Uiso   1.00
H103   H     1.00002   0.99997   0.44312   0.00000  Uiso   1.00
O61    O     1.00349   0.94878   0.46950   0.00000  Uiso   1.00
O63    O     1.00348   0.05117   0.53050   0.00000  Uiso   1.00
Fe9    Cu    0.24997   0.25002   0.24999   0.00000  Uiso   1.00
Fe10   Cu    1.25003   0.75003   0.75000   0.00000  Uiso   1.00
C265   C     0.47013   0.39979   0.03315   0.00000  Uiso   1.00
C266   C     0.48636   0.38540   0.04393   0.00000  Uiso   1.00
C267   C     0.48480   0.36599   0.06781   0.00000  Uiso   1.00
C268   C     0.46675   0.36115   0.08075   0.00000  Uiso   1.00
C269   C     0.45060   0.37500   0.07029   0.00000  Uiso   1.00
C270   C     0.45197   0.39460   0.04628   0.00000  Uiso   1.00
O65    O     0.47268   0.41914   0.00952   0.00000  Uiso   1.00
O66    O     0.50401   0.39093   0.03052   0.00000  Uiso   1.00
H105   H     0.49739   0.35494   0.07622   0.00000  Uiso   1.00
O67    O     0.46407   0.34253   0.10453   0.00000  Uiso   1.00
O68    O     0.43349   0.36832   0.08497   0.00000  Uiso   1.00
H106   H     0.43930   0.40559   0.03811   0.00000  Uiso   1.00
Fe13   Cu    0.43882   0.34232   0.11446   0.00000  Uiso   1.00
C271   C     0.48636   0.61450   0.95605   0.00000  Uiso   1.00
C272   C     0.47013   0.60013   0.96682   0.00000  Uiso   1.00
C273   C     0.45197   0.60531   0.95368   0.00000  Uiso   1.00
C274   C     0.45060   0.62489   0.92963   0.00000  Uiso   1.00
C275   C     0.46676   0.63871   0.91917   0.00000  Uiso   1.00
C276   C     0.48480   0.63388   0.93212   0.00000  Uiso   1.00
O69    O     0.50400   0.60899   0.96948   0.00000  Uiso   1.00
O70    O     0.47268   0.58078   0.99047   0.00000  Uiso   1.00
H107   H     0.43929   0.59434   0.96185   0.00000  Uiso   1.00
O71    O     0.43350   0.63157   0.91493   0.00000  Uiso   1.00
O72    O     0.46409   0.65731   0.89537   0.00000  Uiso   1.00
H108   H     0.49740   0.64490   0.92369   0.00000  Uiso   1.00
Fe14   Cu    0.43884   0.65758   0.88546   0.00000  Uiso   1.00
C289   C     1.01365   0.61460   0.95608   0.00000  Uiso   1.00
C290   C     1.02988   0.60023   0.96687   0.00000  Uiso   1.00
C291   C     1.04805   0.60543   0.95376   0.00000  Uiso   1.00
C292   C     1.04942   0.62503   0.92974   0.00000  Uiso   1.00
C293   C     1.03326   0.63885   0.91926   0.00000  Uiso   1.00
C294   C     1.01521   0.63401   0.93218   0.00000  Uiso   1.00
O81    O     0.99600   0.60906   0.96947   0.00000  Uiso   1.00
O82    O     1.02732   0.58086   0.99049   0.00000  Uiso   1.00
H113   H     1.06072   0.59445   0.96194   0.00000  Uiso   1.00
O83    O     1.06653   0.63172   0.91508   0.00000  Uiso   1.00
O84    O     1.03594   0.65746   0.89547   0.00000  Uiso   1.00
H114   H     1.00262   0.64503   0.92374   0.00000  Uiso   1.00
Fe17   Cu    1.06120   0.65770   0.88557   0.00000  Uiso   1.00
C295   C     1.02986   0.39989   0.03320   0.00000  Uiso   1.00
C296   C     1.01363   0.38550   0.04396   0.00000  Uiso   1.00
C297   C     1.01519   0.36611   0.06787   0.00000  Uiso   1.00
C298   C     1.03323   0.36129   0.08084   0.00000  Uiso   1.00
C299   C     1.04938   0.37513   0.07040   0.00000  Uiso   1.00
C300   C     1.04802   0.39472   0.04636   0.00000  Uiso   1.00
O85    O     1.02732   0.41922   0.00954   0.00000  Uiso   1.00
O86    O     0.99599   0.39101   0.03051   0.00000  Uiso   1.00
H115   H     1.00259   0.35507   0.07627   0.00000  Uiso   1.00
O87    O     1.03589   0.34268   0.10463   0.00000  Uiso   1.00
O88    O     1.06648   0.36846   0.08511   0.00000  Uiso   1.00
H116   H     1.06069   0.40570   0.03820   0.00000  Uiso   1.00
Fe18   Cu    1.06115   0.34243   0.11456   0.00000  Uiso   1.00
C313   C     0.47014   0.89986   0.53317   0.00000  Uiso   1.00
C314   C     0.48637   0.88548   0.54394   0.00000  Uiso   1.00
C315   C     0.48482   0.86610   0.56786   0.00000  Uiso   1.00
C316   C     0.46678   0.86128   0.58082   0.00000  Uiso   1.00
C317   C     0.45062   0.87511   0.57036   0.00000  Uiso   1.00
C318   C     0.45198   0.89469   0.54632   0.00000  Uiso   1.00
O97    O     0.47268   0.91920   0.50952   0.00000  Uiso   1.00
O98    O     0.50401   0.89099   0.53052   0.00000  Uiso   1.00
H121   H     0.49741   0.85507   0.57629   0.00000  Uiso   1.00
O99    O     0.46411   0.84268   0.60463   0.00000  Uiso   1.00
O100   O     0.43352   0.86845   0.58507   0.00000  Uiso   1.00
H122   H     0.43930   0.90566   0.53815   0.00000  Uiso   1.00
Fe21   Cu    0.43886   0.84245   0.61456   0.00000  Uiso   1.00
C319   C     0.48635   0.11458   0.45607   0.00000  Uiso   1.00
C320   C     0.47012   0.10019   0.46684   0.00000  Uiso   1.00
C321   C     0.45195   0.10539   0.45372   0.00000  Uiso   1.00
C322   C     0.45058   0.12500   0.42970   0.00000  Uiso   1.00
C323   C     0.46674   0.13884   0.41925   0.00000  Uiso   1.00
C324   C     0.48478   0.13399   0.43218   0.00000  Uiso   1.00
O101   O     0.50400   0.10905   0.46948   0.00000  Uiso   1.00
O102   O     0.47268   0.08084   0.49048   0.00000  Uiso   1.00
H123   H     0.43928   0.09441   0.46188   0.00000  Uiso   1.00
O103   O     0.43347   0.13170   0.41503   0.00000  Uiso   1.00
O104   O     0.46406   0.15746   0.39547   0.00000  Uiso   1.00
H124   H     0.49737   0.14503   0.42376   0.00000  Uiso   1.00
Fe22   Cu    0.43880   0.15771   0.38557   0.00000  Uiso   1.00
C337   C     1.01364   0.11450   0.45605   0.00000  Uiso   1.00
C338   C     1.02988   0.10013   0.46684   0.00000  Uiso   1.00
C339   C     1.04804   0.10530   0.45371   0.00000  Uiso   1.00
C340   C     1.04940   0.12487   0.42966   0.00000  Uiso   1.00
C341   C     1.03324   0.13869   0.41917   0.00000  Uiso   1.00
C342   C     1.01520   0.13386   0.43212   0.00000  Uiso   1.00
O113   O     0.99600   0.10899   0.46948   0.00000  Uiso   1.00
O114   O     1.02732   0.08079   0.49050   0.00000  Uiso   1.00
H129   H     1.06072   0.09433   0.46189   0.00000  Uiso   1.00
O115   O     1.06651   0.13156   0.41497   0.00000  Uiso   1.00
O116   O     1.03591   0.15728   0.39537   0.00000  Uiso   1.00
H130   H     1.00261   0.14488   0.42368   0.00000  Uiso   1.00
Fe25   Cu    1.06117   0.15755   0.38548   0.00000  Uiso   1.00
C343   C     1.02986   0.89979   0.53317   0.00000  Uiso   1.00
C344   C     1.01363   0.88540   0.54393   0.00000  Uiso   1.00
C345   C     1.01520   0.86597   0.56781   0.00000  Uiso   1.00
C346   C     1.03324   0.86113   0.58075   0.00000  Uiso   1.00
C347   C     1.04940   0.87498   0.57032   0.00000  Uiso   1.00
C348   C     1.04803   0.89460   0.54631   0.00000  Uiso   1.00
O117   O     1.02732   0.91915   0.50954   0.00000  Uiso   1.00
O118   O     0.99599   0.89094   0.53052   0.00000  Uiso   1.00
H131   H     1.00261   0.85492   0.57621   0.00000  Uiso   1.00
O119   O     1.03592   0.84251   0.60453   0.00000  Uiso   1.00
O120   O     1.06650   0.86831   0.58501   0.00000  Uiso   1.00
H132   H     1.06070   0.90559   0.53816   0.00000  Uiso   1.00
Fe26   Cu    1.06118   0.84230   0.61448   0.00000  Uiso   1.00
Fe1    Fe    0.50000   0.41963  -0.00000   0.00000  Uiso   1.00
Fe2    Fe    0.50000   0.58029  -0.00000   0.00000  Uiso   1.00
Fe3    Fe    1.00000   0.58036  -0.00000   0.00000  Uiso   1.00
Fe4    Fe    1.00000   0.41970  -0.00000   0.00000  Uiso   1.00
Fe5    Fe    0.50000   0.91969   0.50000   0.00000  Uiso   1.00
Fe6    Fe    0.50000   0.08035   0.50000   0.00000  Uiso   1.00
Fe7    Fe    1.00000   0.08030   0.50000   0.00000  Uiso   1.00
Fe8    Fe    1.00000   0.91964   0.50000   0.00000  Uiso   1.00
loop_
_geom_bond_atom_site_label_1
_geom_bond_atom_site_label_2
_geom_bond_distance
_geom_bond_site_symmetry_2
_ccdc_geom_bond_type
C1     C2      1.432   .     A
C1     C6      1.429   .     A
C1     C11     1.421   .     A
C2     C3      1.429   .     A
C2     C14     1.420   .     A
C3     C4      1.422   .     A
C3     C10     1.427   .     A
C4     C5      1.422   .     A
C4     C7      1.416   .     A
C5     C6      1.422   .     A
C5     C18     1.416   .     A
C6     C15     1.427   .     A
C7     C8      1.391   .     A
C7     H1      1.079   .     S
C8     C9      1.408   .     A
C8     C26     1.404   .     A
C9     C10     1.402   .     A
C9     C23     1.414   .     A
C10    H2      1.076   .     S
C11    C12     1.396   .     A
C11    H3      1.076   .     S
C12    C13     1.408   .     A
C12    C30     1.409   .     A
C13    C14     1.396   .     A
C13    C27     1.409   .     A
C14    H4      1.076   .     S
C15    C16     1.401   .     A
C15    H5      1.077   .     S
C16    C17     1.408   .     A
C16    C22     1.414   .     A
C17    C18     1.391   .     A
C17    C19     1.403   .     A
C18    H6      1.079   .     S
C19    C20     1.390   .     A
C19    H7      1.084   .     S
C20    C21     1.372   .     A
C20    O1      1.376   .     S
C21    C22     1.402   .     A
C21    O2      1.387   .     S
C22    H8      1.083   .     S
C23    C24     1.402   .     A
C23    H9      1.083   .     S
C24    C25     1.372   .     A
C24    O3      1.387   .     S
C25    C26     1.390   .     A
C25    O4      1.376   .     S
C26    H10     1.084   .     S
O1     Fe22    1.805   .     S
O2     Fe22    1.820   .     S
O3     Fe13    1.820   .     S
O4     Fe13    1.805   .     S
C27    C28     1.396   .     A
C27    H11     1.083   .     S
C28    C29     1.372   .     A
C28    O5      1.381   .     S
C29    C30     1.396   .     A
C29    O6      1.381   .     S
C30    H12     1.084   .     S
O5     Fe9     1.813   .     S
O6     Fe9     1.812   .     S
C31    C32     1.432   .     A
C31    C36     1.429   .     A
C31    C41     1.420   .     A
C32    C33     1.429   .     A
C32    C44     1.420   .     A
C33    C34     1.422   .     A
C33    C40     1.427   .     A
C34    C35     1.421   .     A
C34    C37     1.416   .     A
C35    C36     1.422   .     A
C35    C48     1.416   .     A
C36    C45     1.426   .     A
C37    C38     1.391   .     A
C37    H13     1.079   .     S
C38    C39     1.408   .     A
C38    C56     1.404   .     A
C39    C40     1.402   .     A
C39    C53     1.414   .     A
C40    H14     1.076   .     S
C41    C42     1.396   .     A
C41    H15     1.076   .     S
C42    C43     1.408   .     A
C42    C60     1.409   .     A
C43    C44     1.396   .     A
C43    C57     1.409   .     A
C44    H16     1.076   .     S
C45    C46     1.401   .     A
C45    H17     1.077   .     S
C46    C47     1.408   .     A
C46    C52     1.414   .     A
C47    C48     1.391   .     A
C47    C49     1.403   .     A
C48    H18     1.079   .     S
C49    C50     1.390   .     A
C49    H19     1.084   .     S
C50    C51     1.372   .     A
C50    O7      1.376   .     S
C51    C52     1.402   .     A
C51    O8      1.387   .     S
C52    H20     1.083   .     S
C53    C54     1.402   .     A
C53    H21     1.083   .     S
C54    C55     1.372   .     A
C54    O9      1.387   .     S
C55    C56     1.390   .     A
C55    O10     1.376   .     S
C56    H22     1.084   .     S
O7     Fe14    1.805   .     S
O8     Fe14    1.820   .     S
O9     Fe21    1.820   .     S
O10    Fe21    1.805   .     S
C57    C58     1.396   .     A
C57    H23     1.083   .     S
C58    C59     1.372   .     A
C58    O11     1.381   .     S
C59    C60     1.396   .     A
C59    O12     1.381   .     S
C60    H24     1.083   .     S
O11    Fe10    1.813   1_455 S
O12    Fe10    1.812   1_455 S
C121   C122    1.432   .     A
C121   C126    1.429   .     A
C121   C131    1.420   .     A
C122   C123    1.429   .     A
C122   C134    1.420   .     A
C123   C124    1.422   .     A
C123   C130    1.427   .     A
C124   C125    1.421   .     A
C124   C127    1.416   .     A
C125   C126    1.422   .     A
C125   C138    1.416   .     A
C126   C135    1.427   .     A
C127   C128    1.391   .     A
C127   H49     1.079   .     S
C128   C129    1.408   .     A
C128   C146    1.404   .     A
C129   C130    1.401   .     A
C129   C143    1.414   .     A
C130   H50     1.077   .     S
C131   C132    1.396   .     A
C131   H51     1.076   .     S
C132   C133    1.408   .     A
C132   C150    1.409   .     A
C133   C134    1.396   .     A
C133   C147    1.409   .     A
C134   H52     1.076   .     S
C135   C136    1.402   .     A
C135   H53     1.076   .     S
C136   C137    1.408   .     A
C136   C142    1.414   .     A
C137   C138    1.391   .     A
C137   C139    1.404   .     A
C138   H54     1.079   .     S
C139   C140    1.390   .     A
C139   H55     1.084   .     S
C140   C141    1.372   .     A
C140   O25     1.376   .     S
C141   C142    1.402   .     A
C141   O26     1.387   .     S
C142   H56     1.083   .     S
C143   C144    1.402   .     A
C143   H57     1.083   .     S
C144   C145    1.372   .     A
C144   O27     1.387   .     S
C145   C146    1.390   .     A
C145   O28     1.376   .     S
C146   H58     1.084   .     S
O25    Fe17    1.805   .     S
O26    Fe17    1.820   .     S
O27    Fe26    1.820   .     S
O28    Fe26    1.805   .     S
C147   C148    1.396   .     A
C147   H59     1.083   .     S
C148   C149    1.372   .     A
C148   O29     1.381   .     S
C149   C150    1.396   .     A
C149   O30     1.381   .     S
C150   H60     1.083   .     S
O29    Fe10    1.812   .     S
O30    Fe10    1.813   .     S
C151   C152    1.432   .     A
C151   C156    1.429   .     A
C151   C161    1.420   .     A
C152   C153    1.429   .     A
C152   C164    1.420   .     A
C153   C154    1.422   .     A
C153   C160    1.427   .     A
C154   C155    1.422   .     A
C154   C157    1.416   .     A
C155   C156    1.422   .     A
C155   C168    1.416   .     A
C156   C165    1.427   .     A
C157   C158    1.391   .     A
C157   H61     1.079   .     S
C158   C159    1.408   .     A
C158   C176    1.404   .     A
C159   C160    1.401   .     A
C159   C173    1.414   .     A
C160   H62     1.077   .     S
C161   C162    1.396   .     A
C161   H63     1.076   .     S
C162   C163    1.408   .     A
C162   C180    1.409   .     A
C163   C164    1.396   .     A
C163   C177    1.409   .     A
C164   H64     1.076   .     S
C165   C166    1.402   .     A
C165   H65     1.076   .     S
C166   C167    1.408   .     A
C166   C172    1.414   .     A
C167   C168    1.391   .     A
C167   C169    1.404   .     A
C168   H66     1.079   .     S
C169   C170    1.390   .     A
C169   H67     1.084   .     S
C170   C171    1.372   .     A
C170   O31     1.376   .     S
C171   C172    1.402   .     A
C171   O32     1.387   .     S
C172   H68     1.083   .     S
C173   C174    1.402   .     A
C173   H69     1.083   .     S
C174   C175    1.372   .     A
C174   O33     1.387   .     S
C175   C176    1.390   .     A
C175   O34     1.376   .     S
C176   H70     1.084   .     S
O31    Fe25    1.805   .     S
O32    Fe25    1.820   .     S
O33    Fe18    1.820   .     S
O34    Fe18    1.805   .     S
C177   C178    1.396   .     A
C177   H71     1.083   .     S
C178   C179    1.372   .     A
C178   O35     1.381   .     S
C179   C180    1.396   .     A
C179   O36     1.381   .     S
C180   H72     1.083   .     S
O35    Fe9     1.812   1_655 S
O36    Fe9     1.812   1_655 S
C241   C242    1.400   .     A
C241   C245    1.400   2_656 A
C241   H97     1.083   .     S
C242   C242    1.394   2_657 A
C242   O49     1.387   .     S
C245   C241    1.400   2_656 A
C245   C245    1.394   2_655 A
C245   O51     1.387   .     S
O49    Fe1     1.933   1_556 S
O51    Fe2     1.933   .     S
C247   C248    1.400   .     A
C247   C251    1.400   2_756 A
C247   H99     1.082   .     S
C248   C248    1.394   2_757 A
C248   O53     1.387   .     S
C251   C247    1.400   2_756 A
C251   C251    1.394   2_755 A
C251   O55     1.387   .     S
O53    Fe4     1.933   1_556 S
O55    Fe3     1.933   .     S
C253   C254    1.400   .     A
C253   C257    1.400   2_646 A
C253   H101    1.082   .     S
C254   C254    1.394   2_656 A
C254   O57     1.387   .     S
C257   C253    1.400   2_666 A
C257   C257    1.394   2_656 A
C257   O59     1.387   .     S
O57    Fe6     1.933   .     S
O59    Fe5     1.933   .     S
C259   C260    1.400   .     A
C259   C263    1.400   2_766 A
C259   H103    1.082   .     S
C260   C260    1.394   2_756 A
C260   O61     1.387   .     S
C263   C259    1.400   2_746 A
C263   C263    1.394   2_756 A
C263   O63     1.387   .     S
O61    Fe8     1.933   .     S
O63    Fe7     1.933   .     S
Fe9    O36     1.812   1_455 S
Fe9    O35     1.812   1_455 S
Fe10   O12     1.812   1_655 S
Fe10   O11     1.813   1_655 S
C265   C266    1.398   .     A
C265   C270    1.407   .     A
C265   O65     1.392   .     S
C266   C267    1.395   .     A
C266   O66     1.383   .     S
C267   C268    1.393   .     A
C267   H105    1.083   .     S
C268   C269    1.377   .     A
C268   O67     1.376   .     S
C269   C270    1.405   .     A
C269   O68     1.386   .     S
C270   H106    1.082   .     S
O65    Fe1     1.941   .     S
O66    Fe1     1.924   .     S
O67    Fe13    1.806   .     S
O68    Fe13    1.820   .     S
C271   C272    1.398   .     A
C271   C276    1.395   .     A
C271   O69     1.383   .     S
C272   C273    1.407   .     A
C272   O70     1.392   .     S
C273   C274    1.405   .     A
C273   H107    1.082   .     S
C274   C275    1.377   .     A
C274   O71     1.386   .     S
C275   C276    1.393   .     A
C275   O72     1.376   .     S
C276   H108    1.083   .     S
O69    Fe2     1.924   1_556 S
O70    Fe2     1.941   1_556 S
O71    Fe14    1.820   .     S
O72    Fe14    1.806   .     S
C289   C290    1.398   .     A
C289   C294    1.395   .     A
C289   O81     1.383   .     S
C290   C291    1.407   .     A
C290   O82     1.392   .     S
C291   C292    1.405   .     A
C291   H113    1.082   .     S
C292   C293    1.377   .     A
C292   O83     1.386   .     S
C293   C294    1.393   .     A
C293   O84     1.376   .     S
C294   H114    1.083   .     S
O81    Fe3     1.924   1_556 S
O82    Fe3     1.942   1_556 S
O83    Fe17    1.820   .     S
O84    Fe17    1.806   .     S
C295   C296    1.398   .     A
C295   C300    1.407   .     A
C295   O85     1.392   .     S
C296   C297    1.395   .     A
C296   O86     1.383   .     S
C297   C298    1.393   .     A
C297   H115    1.083   .     S
C298   C299    1.377   .     A
C298   O87     1.376   .     S
C299   C300    1.405   .     A
C299   O88     1.386   .     S
C300   H116    1.082   .     S
O85    Fe4     1.941   .     S
O86    Fe4     1.924   .     S
O87    Fe18    1.806   .     S
O88    Fe18    1.820   .     S
C313   C314    1.398   .     A
C313   C318    1.407   .     A
C313   O97     1.392   .     S
C314   C315    1.395   .     A
C314   O98     1.383   .     S
C315   C316    1.393   .     A
C315   H121    1.082   .     S
C316   C317    1.377   .     A
C316   O99     1.376   .     S
C317   C318    1.405   .     A
C317   O100    1.386   .     S
C318   H122    1.082   .     S
O97    Fe5     1.941   .     S
O98    Fe5     1.924   .     S
O99    Fe21    1.806   .     S
O100   Fe21    1.820   .     S
C319   C320    1.398   .     A
C319   C324    1.395   .     A
C319   O101    1.383   .     S
C320   C321    1.407   .     A
C320   O102    1.392   .     S
C321   C322    1.405   .     A
C321   H123    1.082   .     S
C322   C323    1.377   .     A
C322   O103    1.386   .     S
C323   C324    1.393   .     A
C323   O104    1.376   .     S
C324   H124    1.083   .     S
O101   Fe6     1.924   .     S
O102   Fe6     1.941   .     S
O103   Fe22    1.820   .     S
O104   Fe22    1.806   .     S
C337   C338    1.398   .     A
C337   C342    1.395   .     A
C337   O113    1.383   .     S
C338   C339    1.407   .     A
C338   O114    1.392   .     S
C339   C340    1.405   .     A
C339   H129    1.082   .     S
C340   C341    1.377   .     A
C340   O115    1.386   .     S
C341   C342    1.393   .     A
C341   O116    1.376   .     S
C342   H130    1.082   .     S
O113   Fe7     1.924   .     S
O114   Fe7     1.942   .     S
O115   Fe25    1.820   .     S
O116   Fe25    1.806   .     S
C343   C344    1.398   .     A
C343   C348    1.407   .     A
C343   O117    1.392   .     S
C344   C345    1.395   .     A
C344   O118    1.383   .     S
C345   C346    1.393   .     A
C345   H131    1.083   .     S
C346   C347    1.377   .     A
C346   O119    1.376   .     S
C347   C348    1.405   .     A
C347   O120    1.386   .     S
C348   H132    1.082   .     S
O117   Fe8     1.941   .     S
O118   Fe8     1.924   .     S
O119   Fe26    1.806   .     S
O120   Fe26    1.820   .     S
Fe1    O49     1.933   1_554 S
Fe1    O49     1.933   2_656 S
Fe1    O65     1.941   2_655 S
Fe1    O66     1.924   2_655 S
Fe2    O51     1.933   2_655 S
Fe2    O69     1.924   1_554 S
Fe2    O69     1.924   2_656 S
Fe2    O70     1.941   1_554 S
Fe2    O70     1.941   2_656 S
Fe3    O55     1.933   2_755 S
Fe3    O81     1.924   1_554 S
Fe3    O81     1.924   2_756 S
Fe3    O82     1.942   1_554 S
Fe3    O82     1.942   2_756 S
Fe4    O53     1.933   1_554 S
Fe4    O53     1.933   2_756 S
Fe4    O85     1.941   2_755 S
Fe4    O86     1.924   2_755 S
Fe5    O59     1.933   2_656 S
Fe5    O97     1.941   2_656 S
Fe5    O98     1.924   2_656 S
Fe6    O57     1.933   2_656 S
Fe6    O101    1.924   2_656 S
Fe6    O102    1.941   2_656 S
Fe7    O63     1.933   2_756 S
Fe7    O113    1.924   2_756 S
Fe7    O114    1.942   2_756 S
Fe8    O61     1.933   2_756 S
Fe8    O117    1.941   2_756 S
Fe8    O118    1.924   2_756 S
