data_noj_Feoct_DHBQ
_audit_creation_date              2023-08-06
_audit_creation_method            'Materials Studio'
_symmetry_space_group_name_H-M    'P1'
_symmetry_Int_Tables_number       1
_symmetry_cell_setting            triclinic
loop_
_symmetry_equiv_pos_as_xyz
  x,y,z
_cell_length_a                    27.6105
_cell_length_b                    27.6105
_cell_length_c                    13.2153
_cell_angle_alpha                 90.0000
_cell_angle_beta                  90.0000
_cell_angle_gamma                 90.0000
loop_
_atom_site_label
_atom_site_type_symbol
_atom_site_fract_x
_atom_site_fract_y
_atom_site_fract_z
_atom_site_U_iso_or_equiv
_atom_site_adp_type
_atom_site_occupancy
Fe1    Fe   -0.00110   0.82809  -0.01820   0.00000  Uiso   1.00
Fe2    Fe    0.17201   0.00120   0.76825   0.00000  Uiso   1.00
Fe3    Fe   -0.00116   0.16358   0.51773   0.00000  Uiso   1.00
Fe4    Fe    0.83652   0.00126   0.23232   0.00000  Uiso   1.00
Fe5    Fe   -0.00808   0.55883  -0.00140   0.00000  Uiso   1.00
Fe6    Fe    0.44127   0.00818   0.75145   0.00000  Uiso   1.00
Fe7    Fe   -0.00833   0.43083   0.49949   0.00000  Uiso   1.00
Fe8    Fe    0.56927   0.00843   0.25056   0.00000  Uiso   1.00
C1     C     0.03961   0.69317   0.04734   0.00000  Uiso   1.00
C2     C     0.01557   0.64994   0.02486   0.00000  Uiso   1.00
C3     C     0.97151   0.65010   0.96200   0.00000  Uiso   1.00
C4     C     0.95062   0.69380   0.93030   0.00000  Uiso   1.00
C5     C     0.97360   0.73725   0.95652   0.00000  Uiso   1.00
C6     C     0.01978   0.73667   0.01234   0.00000  Uiso   1.00
H1     H     0.07280   0.69299   0.09099   0.00000  Uiso   1.00
O1     O     0.03026   0.60877   0.05523   0.00000  Uiso   1.00
O2     O     0.95412   0.60879   0.93979   0.00000  Uiso   1.00
H2     H     0.91743   0.69397   0.88665   0.00000  Uiso   1.00
O3     O     0.95680   0.77885   0.93402   0.00000  Uiso   1.00
O4     O     0.03956   0.77754   0.02756   0.00000  Uiso   1.00
C7     C     0.30693   0.96049   0.70271   0.00000  Uiso   1.00
C8     C     0.35016   0.98453   0.72519   0.00000  Uiso   1.00
C9     C     0.35000   0.02859   0.78805   0.00000  Uiso   1.00
C10    C     0.30630   0.04948   0.81975   0.00000  Uiso   1.00
C11    C     0.26285   0.02650   0.79353   0.00000  Uiso   1.00
C12    C     0.26343   0.98032   0.73771   0.00000  Uiso   1.00
H3     H     0.30711   0.92730   0.65906   0.00000  Uiso   1.00
O5     O     0.39133   0.96984   0.69482   0.00000  Uiso   1.00
O6     O     0.39131   0.04598   0.81026   0.00000  Uiso   1.00
H4     H     0.30613   0.08267   0.86340   0.00000  Uiso   1.00
O7     O     0.22125   0.04330   0.81603   0.00000  Uiso   1.00
O8     O     0.22256   0.96054   0.72249   0.00000  Uiso   1.00
C13    C     0.04697   0.29900   0.52732   0.00000  Uiso   1.00
C14    C     0.01888   0.34125   0.52588   0.00000  Uiso   1.00
C15    C     0.96913   0.33917   0.48790   0.00000  Uiso   1.00
C16    C     0.94324   0.29546   0.49604   0.00000  Uiso   1.00
C17    C     0.96989   0.25350   0.51945   0.00000  Uiso   1.00
C18    C     0.02276   0.25499   0.51235   0.00000  Uiso   1.00
H5     H     0.08577   0.30034   0.53884   0.00000  Uiso   1.00
O9     O     0.03428   0.38289   0.55076   0.00000  Uiso   1.00
O10    O     0.95190   0.37886   0.45434   0.00000  Uiso   1.00
H6     H     0.90447   0.29410   0.48423   0.00000  Uiso   1.00
O11    O     0.95157   0.21245   0.54107   0.00000  Uiso   1.00
O12    O     0.04363   0.21472   0.49688   0.00000  Uiso   1.00
C19    C     0.70110   0.95313   0.22273   0.00000  Uiso   1.00
C20    C     0.65885   0.98122   0.22417   0.00000  Uiso   1.00
C21    C     0.66093   0.03097   0.26215   0.00000  Uiso   1.00
C22    C     0.70464   0.05686   0.25401   0.00000  Uiso   1.00
C23    C     0.74660   0.03021   0.23060   0.00000  Uiso   1.00
C24    C     0.74511   0.97734   0.23770   0.00000  Uiso   1.00
H7     H     0.69976   0.91433   0.21121   0.00000  Uiso   1.00
O13    O     0.61721   0.96582   0.19929   0.00000  Uiso   1.00
O14    O     0.62124   0.04820   0.29571   0.00000  Uiso   1.00
H8     H     0.70600   0.09563   0.26581   0.00000  Uiso   1.00
O15    O     0.78765   0.04853   0.20898   0.00000  Uiso   1.00
O16    O     0.78538   0.95647   0.25317   0.00000  Uiso   1.00
C25    C     0.11137   0.91831   0.97578   0.00000  Uiso   1.00
C26    C     0.13332   0.93830   0.89035   0.00000  Uiso   1.00
C27    C     0.11337   0.92772   0.78954   0.00000  Uiso   1.00
C28    C     0.08179   0.88873   0.77427   0.00000  Uiso   1.00
C29    C     0.06180   0.86678   0.85970   0.00000  Uiso   1.00
C30    C     0.07238   0.88673   0.96051   0.00000  Uiso   1.00
H9     H     0.12165   0.92984   0.05109   0.00000  Uiso   1.00
O17    O     0.16782   0.96895   0.89430   0.00000  Uiso   1.00
O18    O     0.12594   0.95629   0.71971   0.00000  Uiso   1.00
H10    H     0.07026   0.87845   0.69895   0.00000  Uiso   1.00
O19    O     0.03115   0.83228   0.85575   0.00000  Uiso   1.00
O20    O     0.04381   0.87416   0.03034   0.00000  Uiso   1.00
C31    C     0.07338   0.10709   0.74775   0.00000  Uiso   1.00
C32    C     0.10951   0.07128   0.73922   0.00000  Uiso   1.00
C33    C     0.13334   0.06149   0.64168   0.00000  Uiso   1.00
C34    C     0.11353   0.07951   0.55306   0.00000  Uiso   1.00
C35    C     0.07207   0.10797   0.56066   0.00000  Uiso   1.00
C36    C     0.05472   0.12692   0.65817   0.00000  Uiso   1.00
H11    H     0.05818   0.11663   0.82059   0.00000  Uiso   1.00
O21    O     0.12307   0.04476   0.81207   0.00000  Uiso   1.00
O22    O     0.16959   0.03306   0.64254   0.00000  Uiso   1.00
H12    H     0.12769   0.06875   0.48000   0.00000  Uiso   1.00
O23    O     0.04698   0.11855   0.48470   0.00000  Uiso   1.00
O24    O     0.02083   0.15869   0.65420   0.00000  Uiso   1.00
C37    C     0.89148   0.07024   0.46914   0.00000  Uiso   1.00
C38    C     0.92988   0.10341   0.46750   0.00000  Uiso   1.00
C39    C     0.94629   0.12656   0.37319   0.00000  Uiso   1.00
C40    C     0.92986   0.10862   0.28091   0.00000  Uiso   1.00
C41    C     0.89669   0.07022   0.28255   0.00000  Uiso   1.00
C42    C     0.87354   0.05381   0.37686   0.00000  Uiso   1.00
H13    H     0.87795   0.05577   0.53986   0.00000  Uiso   1.00
O25    O     0.95296   0.11497   0.54589   0.00000  Uiso   1.00
O26    O     0.97751   0.16061   0.38149   0.00000  Uiso   1.00
H14    H     0.94433   0.12215   0.21019   0.00000  Uiso   1.00
O27    O     0.88513   0.04714   0.20416   0.00000  Uiso   1.00
O28    O     0.83949   0.02259   0.36856   0.00000  Uiso   1.00
C43    C     0.92059   0.88657   0.19699   0.00000  Uiso   1.00
C44    C     0.93861   0.86676   0.10837   0.00000  Uiso   1.00
C45    C     0.92882   0.89059   0.01083   0.00000  Uiso   1.00
C46    C     0.89301   0.92672   0.00230   0.00000  Uiso   1.00
C47    C     0.87318   0.94538   0.09188   0.00000  Uiso   1.00
C48    C     0.89213   0.92803   0.18939   0.00000  Uiso   1.00
H15    H     0.93135   0.87241   0.27005   0.00000  Uiso   1.00
O29    O     0.96704   0.83051   0.10751   0.00000  Uiso   1.00
O30    O     0.95534   0.87703   0.93798   0.00000  Uiso   1.00
H16    H     0.88347   0.94192   0.92946   0.00000  Uiso   1.00
O31    O     0.84141   0.97927   0.09585   0.00000  Uiso   1.00
O32    O     0.88155   0.95312   0.26535   0.00000  Uiso   1.00
C49    C     0.94650   0.52060   0.27773   0.00000  Uiso   1.00
C50    C     0.96811   0.52802   0.18208   0.00000  Uiso   1.00
C51    C     0.01191   0.50115   0.15237   0.00000  Uiso   1.00
C52    C     0.03273   0.46766   0.21882   0.00000  Uiso   1.00
C53    C     0.01150   0.46058   0.31411   0.00000  Uiso   1.00
C54    C     0.96775   0.48721   0.34503   0.00000  Uiso   1.00
H17    H     0.91433   0.54051   0.29929   0.00000  Uiso   1.00
O33    O     0.95196   0.55778   0.11646   0.00000  Uiso   1.00
O34    O     0.02916   0.51039   0.06474   0.00000  Uiso   1.00
H18    H     0.06497   0.44782   0.19734   0.00000  Uiso   1.00
O35    O     0.02860   0.43130   0.37874   0.00000  Uiso   1.00
O36    O     0.95156   0.47795   0.43412   0.00000  Uiso   1.00
C55    C     0.47752   0.96465   0.03222   0.00000  Uiso   1.00
C56    C     0.47137   0.98522   0.93533   0.00000  Uiso   1.00
C57    C     0.49846   0.02879   0.90492   0.00000  Uiso   1.00
C58    C     0.53186   0.04971   0.97113   0.00000  Uiso   1.00
C59    C     0.53844   0.02888   0.06681   0.00000  Uiso   1.00
C60    C     0.51066   0.98613   0.09943   0.00000  Uiso   1.00
H19    H     0.45711   0.93289   0.05444   0.00000  Uiso   1.00
O37    O     0.44250   0.96831   0.86911   0.00000  Uiso   1.00
O38    O     0.48966   0.04560   0.81678   0.00000  Uiso   1.00
H20    H     0.55229   0.08145   0.94889   0.00000  Uiso   1.00
O39    O     0.56843   0.04546   0.13031   0.00000  Uiso   1.00
O40    O     0.51910   0.97072   0.18943   0.00000  Uiso   1.00
C61    C     0.03545   0.52258   0.71783   0.00000  Uiso   1.00
C62    C     0.01397   0.48944   0.65062   0.00000  Uiso   1.00
C63    C     0.97122   0.46166   0.68324   0.00000  Uiso   1.00
C64    C     0.95039   0.46824   0.77892   0.00000  Uiso   1.00
C65    C     0.97131   0.50164   0.84513   0.00000  Uiso   1.00
C66    C     0.01488   0.52873   0.81472   0.00000  Uiso   1.00
H21    H     0.06721   0.54299   0.69561   0.00000  Uiso   1.00
O41    O     0.02938   0.48100   0.56062   0.00000  Uiso   1.00
O42    O     0.95464   0.43167   0.61974   0.00000  Uiso   1.00
H22    H     0.91865   0.44781   0.80116   0.00000  Uiso   1.00
O43    O     0.95450   0.51044   0.93327   0.00000  Uiso   1.00
O44    O     0.03179   0.55760   0.88094   0.00000  Uiso   1.00
C67    C     0.53244   0.96737   0.53123   0.00000  Uiso   1.00
C68    C     0.49895   0.98819   0.59768   0.00000  Uiso   1.00
C69    C     0.47208   0.03199   0.56797   0.00000  Uiso   1.00
C70    C     0.47950   0.05360   0.47232   0.00000  Uiso   1.00
C71    C     0.51289   0.03235   0.40502   0.00000  Uiso   1.00
C72    C     0.53952   0.98860   0.43594   0.00000  Uiso   1.00
H23    H     0.55228   0.93513   0.55271   0.00000  Uiso   1.00
O45    O     0.48971   0.97094   0.68531   0.00000  Uiso   1.00
O46    O     0.44232   0.04814   0.63359   0.00000  Uiso   1.00
H24    H     0.45959   0.08577   0.45076   0.00000  Uiso   1.00
O47    O     0.52215   0.04854   0.31593   0.00000  Uiso   1.00
O48    O     0.56880   0.97151   0.37131   0.00000  Uiso   1.00
loop_
_geom_bond_atom_site_label_1
_geom_bond_atom_site_label_2
_geom_bond_distance
_geom_bond_site_symmetry_2
_ccdc_geom_bond_type
Fe1    O3      1.897   1_454 S
Fe1    O4      1.891   .     S
Fe1    O19     1.892   1_554 S
Fe1    O20     1.889   .     S
Fe1    O29     1.881   1_455 S
Fe1    O30     1.899   1_454 S
Fe2    O7      1.897   .     S
Fe2    O8      1.891   1_545 S
Fe2    O17     1.892   1_545 S
Fe2    O18     1.889   1_545 S
Fe2    O21     1.899   .     S
Fe2    O22     1.881   .     S
Fe3    O11     1.903   1_455 S
Fe3    O12     1.897   .     S
Fe3    O23     1.872   .     S
Fe3    O24     1.908   .     S
Fe3    O25     1.883   1_455 S
Fe3    O26     1.896   1_455 S
Fe4    O15     1.903   .     S
Fe4    O16     1.897   1_545 S
Fe4    O27     1.883   .     S
Fe4    O28     1.896   .     S
Fe4    O31     1.908   1_545 S
Fe4    O32     1.872   1_545 S
Fe5    O1      1.893   .     S
Fe5    O2      1.896   1_454 S
Fe5    O33     1.909   1_455 S
Fe5    O34     1.900   .     S
Fe5    O43     1.897   1_454 S
Fe5    O44     1.905   1_554 S
Fe6    O5      1.893   1_545 S
Fe6    O6      1.896   .     S
Fe6    O37     1.905   1_545 S
Fe6    O38     1.897   .     S
Fe6    O45     1.900   1_545 S
Fe6    O46     1.909   .     S
Fe7    O9      1.896   .     S
Fe7    O10     1.903   1_455 S
Fe7    O35     1.894   .     S
Fe7    O36     1.915   1_455 S
Fe7    O41     1.912   .     S
Fe7    O42     1.890   1_455 S
Fe8    O13     1.896   1_545 S
Fe8    O14     1.903   .     S
Fe8    O39     1.890   .     S
Fe8    O40     1.912   1_545 S
Fe8    O47     1.915   .     S
Fe8    O48     1.894   1_545 S
C1     C2      1.398   .     A
C1     C6      1.399   .     A
C1     H1      1.083   .     S
C2     C3      1.473   1_454 S
C2     O1      1.272   .     A
C3     C2      1.473   1_656 S
C3     C4      1.402   .     A
C3     O2      1.272   .     A
C4     C5      1.401   .     A
C4     H2      1.083   .     S
C5     C6      1.473   1_656 S
C5     O3      1.274   .     A
C6     C5      1.473   1_454 S
C6     O4      1.270   .     A
O2     Fe5     1.896   1_656 S
O3     Fe1     1.897   1_656 S
C7     C8      1.398   .     A
C7     C12     1.399   .     A
C7     H3      1.083   .     S
C8     C9      1.473   1_565 S
C8     O5      1.272   .     A
C9     C8      1.473   1_545 S
C9     C10     1.402   .     A
C9     O6      1.272   .     A
C10    C11     1.401   .     A
C10    H4      1.083   .     S
C11    C12     1.473   1_545 S
C11    O7      1.274   .     A
C12    C11     1.473   1_565 S
C12    O8      1.270   .     A
O5     Fe6     1.893   1_565 S
O8     Fe2     1.891   1_565 S
C13    C14     1.401   .     A
C13    C18     1.401   .     A
C13    H5      1.083   .     S
C14    C15     1.464   1_455 S
C14    O9      1.269   .     A
C15    C14     1.464   1_655 S
C15    C16     1.407   .     A
C15    O10     1.274   .     A
C16    C17     1.407   .     A
C16    H6      1.082   .     S
C17    C18     1.463   1_655 S
C17    O11     1.274   .     A
C18    C17     1.463   1_455 S
C18    O12     1.269   .     A
O10    Fe7     1.903   1_655 S
O11    Fe3     1.903   1_655 S
C19    C20     1.401   .     A
C19    C24     1.401   .     A
C19    H7      1.083   .     S
C20    C21     1.464   1_565 S
C20    O13     1.269   .     A
C21    C20     1.464   1_545 S
C21    C22     1.407   .     A
C21    O14     1.274   .     A
C22    C23     1.407   .     A
C22    H8      1.082   .     S
C23    C24     1.463   1_545 S
C23    O15     1.274   .     A
C24    C23     1.463   1_565 S
C24    O16     1.269   .     A
O13    Fe8     1.896   1_565 S
O16    Fe4     1.897   1_565 S
C25    C26     1.395   .     A
C25    C30     1.400   .     A
C25    H9      1.083   1_556 S
C26    C27     1.471   .     S
C26    O17     1.275   .     A
C27    C28     1.400   .     A
C27    O18     1.263   .     A
C28    C29     1.395   .     A
C28    H10     1.083   .     S
C29    C30     1.471   .     S
C29    O19     1.275   .     A
C30    O20     1.263   1_556 A
H9     C25     1.083   1_554 S
O17    Fe2     1.892   1_565 S
O18    Fe2     1.889   1_565 S
O19    Fe1     1.892   1_556 S
O20    C30     1.263   1_554 A
C31    C32     1.409   .     A
C31    C36     1.402   .     A
C31    H11     1.083   .     S
C32    C33     1.472   .     S
C32    O21     1.266   .     A
C33    C34     1.385   .     A
C33    O22     1.272   .     A
C34    C35     1.392   .     A
C34    H12     1.083   .     S
C35    C36     1.471   .     S
C35    O23     1.254   .     A
C36    O24     1.284   .     A
C37    C38     1.401   .     A
C37    C42     1.392   .     A
C37    H13     1.083   .     S
C38    C39     1.472   .     S
C38    O25     1.258   .     A
C39    C40     1.392   .     A
C39    O26     1.280   .     A
C40    C41     1.401   .     A
C40    H14     1.083   .     S
C41    C42     1.472   .     S
C41    O27     1.258   .     A
C42    O28     1.280   .     A
O25    Fe3     1.883   1_655 S
O26    Fe3     1.896   1_655 S
C43    C44     1.385   .     A
C43    C48     1.392   .     A
C43    H15     1.083   .     S
C44    C45     1.472   .     S
C44    O29     1.272   .     A
C45    C46     1.409   .     A
C45    O30     1.266   1_554 A
C46    C47     1.402   .     A
C46    H16     1.083   1_554 S
C47    C48     1.471   .     S
C47    O31     1.284   .     A
C48    O32     1.254   .     A
O29    Fe1     1.881   1_655 S
O30    C45     1.266   1_556 A
O30    Fe1     1.899   1_656 S
H16    C46     1.083   1_556 S
O31    Fe4     1.908   1_565 S
O32    Fe4     1.872   1_565 S
C49    C50     1.413   .     A
C49    C54     1.409   .     A
C49    H17     1.083   .     S
C50    C51     1.472   1_655 S
C50    O33     1.275   .     A
C51    C50     1.472   1_455 S
C51    C52     1.399   .     A
C51    O34     1.278   .     A
C52    C53     1.403   .     A
C52    H18     1.083   .     S
C53    C54     1.472   1_455 S
C53    O35     1.267   .     A
C54    C53     1.472   1_655 S
C54    O36     1.285   .     A
O33    Fe5     1.909   1_655 S
O36    Fe7     1.915   1_655 S
C55    C56     1.411   1_554 A
C55    C60     1.406   .     A
C55    H19     1.083   .     S
C56    C55     1.411   1_556 A
C56    C57     1.473   1_565 S
C56    O37     1.272   .     A
C57    C56     1.473   1_545 S
C57    C58     1.396   .     A
C57    O38     1.277   .     A
C58    C59     1.401   1_556 A
C58    H20     1.083   .     S
C59    C58     1.401   1_554 A
C59    C60     1.472   1_545 S
C59    O39     1.265   .     A
C60    C59     1.472   1_565 S
C60    O40     1.285   .     A
O37    Fe6     1.905   1_565 S
O40    Fe8     1.912   1_565 S
C61    C62     1.406   .     A
C61    C66     1.411   .     A
C61    H21     1.083   .     S
C62    C63     1.472   1_455 S
C62    O41     1.285   .     A
C63    C62     1.472   1_655 S
C63    C64     1.401   .     A
C63    O42     1.265   .     A
C64    C65     1.396   .     A
C64    H22     1.083   .     S
C65    C66     1.473   1_655 S
C65    O43     1.277   .     A
C66    C65     1.473   1_455 S
C66    O44     1.272   .     A
O42    Fe7     1.890   1_655 S
O43    Fe5     1.897   1_656 S
O44    Fe5     1.905   1_556 S
C67    C68     1.399   .     A
C67    C72     1.403   .     A
C67    H23     1.083   .     S
C68    C69     1.472   1_565 S
C68    O45     1.278   .     A
C69    C68     1.472   1_545 S
C69    C70     1.413   .     A
C69    O46     1.275   .     A
C70    C71     1.409   .     A
C70    H24     1.083   .     S
C71    C72     1.472   1_545 S
C71    O47     1.285   .     A
C72    C71     1.472   1_565 S
C72    O48     1.267   .     A
O45    Fe6     1.900   1_565 S
O48    Fe8     1.894   1_565 S
