data_pto-spacer-PcMN_O-Feoct
_audit_creation_date              2021-11-06
_audit_creation_method            'Materials Studio'
_symmetry_space_group_name_H-M    'PM-3N'
_symmetry_Int_Tables_number       223
_symmetry_cell_setting            cubic
loop_
_symmetry_equiv_pos_as_xyz
  x,y,z
  -x,-y,z
  -x,y,-z
  x,-y,-z
  z,x,y
  z,-x,-y
  -z,-x,y
  -z,x,-y
  y,z,x
  -y,z,-x
  y,-z,-x
  -y,-z,x
  y+1/2,x+1/2,-z+1/2
  -y+1/2,-x+1/2,-z+1/2
  y+1/2,-x+1/2,z+1/2
  -y+1/2,x+1/2,z+1/2
  x+1/2,z+1/2,-y+1/2
  -x+1/2,z+1/2,y+1/2
  -x+1/2,-z+1/2,-y+1/2
  x+1/2,-z+1/2,y+1/2
  z+1/2,y+1/2,-x+1/2
  z+1/2,-y+1/2,x+1/2
  -z+1/2,y+1/2,x+1/2
  -z+1/2,-y+1/2,-x+1/2
  -x,-y,-z
  x,y,-z
  x,-y,z
  -x,y,z
  -z,-x,-y
  -z,x,y
  z,x,-y
  z,-x,y
  -y,-z,-x
  y,-z,x
  -y,z,x
  y,z,-x
  -y+1/2,-x+1/2,z+1/2
  y+1/2,x+1/2,z+1/2
  -y+1/2,x+1/2,-z+1/2
  y+1/2,-x+1/2,-z+1/2
  -x+1/2,-z+1/2,y+1/2
  x+1/2,-z+1/2,-y+1/2
  x+1/2,z+1/2,y+1/2
  -x+1/2,z+1/2,-y+1/2
  -z+1/2,-y+1/2,x+1/2
  -z+1/2,y+1/2,-x+1/2
  z+1/2,-y+1/2,-x+1/2
  z+1/2,y+1/2,x+1/2
_cell_length_a                    53.4590
_cell_length_b                    53.4590
_cell_length_c                    53.4590
_cell_angle_alpha                 90.0000
_cell_angle_beta                  90.0000
_cell_angle_gamma                 90.0000
loop_
_atom_site_label
_atom_site_type_symbol
_atom_site_fract_x
_atom_site_fract_y
_atom_site_fract_z
_atom_site_U_iso_or_equiv
_atom_site_adp_type
_atom_site_occupancy
C1     C     0.91192   0.44955   0.25001   0.00000  Uiso   1.00
C2     C     0.90508   0.42405   0.25000   0.00000  Uiso   1.00
C5     C     0.95533   0.43735   0.25000   0.00000  Uiso   1.00
C7     C     0.94968   0.47794   0.25001   0.00000  Uiso   1.00
H1     H     0.89798   0.46426   0.25001   0.00000  Uiso   1.00
C33    C     0.87975   0.58297   0.25001   0.00000  Uiso   1.00
C34    C     0.87349   0.60833   0.25000   0.00000  Uiso   1.00
H9     H     0.86507   0.56900   0.25001   0.00000  Uiso   1.00
O1     O     0.84904   0.61669   0.25001   0.00000  Uiso   1.00
C289   C     0.20637   0.27514   0.24999   0.00000  Uiso   1.00
C291   C     0.21822   0.31898   0.25001   0.00000  Uiso   1.00
C292   C     0.19284   0.32537   0.25000   0.00000  Uiso   1.00
O49    O     0.21385   0.25029   0.24997   0.00000  Uiso   1.00
H97    H     0.23246   0.33338   0.25002   0.00000  Uiso   1.00
O51    O     0.18449   0.34981   0.25001   0.00000  Uiso   1.00
Fe1    Fe    0.25000   0.25000   0.25000   0.00000  Uiso   1.00
N1     N     0.97493   0.47493   0.25000   0.00000  Uiso   1.00
N2     N    -0.00000   0.43786   0.24999   0.00000  Uiso   1.00
Fe9    Ni   -0.00000   0.50000   0.25000   0.00000  Uiso   1.00
Fe15   Cu    0.15058   0.34942   0.25000   0.00000  Uiso   1.00
loop_
_geom_bond_atom_site_label_1
_geom_bond_atom_site_label_2
_geom_bond_distance
_geom_bond_site_symmetry_2
_ccdc_geom_bond_type
C1     C2      1.411   .     A
C1     H1      1.084   .     S
C1     C5      1.394   13_545 A
C2     C33     1.405   27_565 A
C2     C2      1.435   13_545 A
C5     C1      1.394   13_545 A
C5     C5      1.359   13_545 A
C5     C7      1.377   13_545 A
C7     N1      1.359   .     A
C7     C5      1.377   13_545 A
C7     N2      1.338   13    A
C33    C34     1.396   .     A
C33    H9      1.083   .     S
C33    C2      1.405   27_565 A
C34    O1      1.381   .     S
C34    C34     1.374   14_665 A
O1     Fe15    1.812   2_665 S
C289   O49     1.387   .     S
C289   C289    1.398   14    A
C289   C291    1.401   14    A
C291   C292    1.399   .     A
C291   H97     1.082   .     S
C291   C289    1.401   14    A
C292   O51     1.381   .     S
C292   C292    1.377   14    A
O49    Fe1     1.933   .     S
O51    Fe15    1.813   .     S
Fe1    O49     1.933   5     S
Fe1    O49     1.933   9     S
Fe1    O49     1.933   14    S
Fe1    O49     1.933   19    S
Fe1    O49     1.933   24    S
N1     C7      1.359   13_545 A
N1     Fe9     1.895   1_655 S
N2     C7      1.338   13_445 A
N2     C7      1.338   39_545 A
Fe9    N1      1.895   1_455 S
Fe9    N1      1.895   2_665 S
Fe9    N1      1.895   27_465 S
Fe9    N1      1.895   28_655 S
Fe15   O51     1.813   14    S
Fe15   O1      1.812   2_665 S
Fe15   O1      1.812   13_445 S
