data_pto-spacer-PcM_O-Feoct
_audit_creation_date              2021-11-06
_audit_creation_method            'Materials Studio'
_symmetry_space_group_name_H-M    'PM-3N'
_symmetry_Int_Tables_number       223
_symmetry_cell_setting            cubic
loop_
_symmetry_equiv_pos_as_xyz
  x,y,z
  -x,-y,z
  -x,y,-z
  x,-y,-z
  z,x,y
  z,-x,-y
  -z,-x,y
  -z,x,-y
  y,z,x
  -y,z,-x
  y,-z,-x
  -y,-z,x
  y+1/2,x+1/2,-z+1/2
  -y+1/2,-x+1/2,-z+1/2
  y+1/2,-x+1/2,z+1/2
  -y+1/2,x+1/2,z+1/2
  x+1/2,z+1/2,-y+1/2
  -x+1/2,z+1/2,y+1/2
  -x+1/2,-z+1/2,-y+1/2
  x+1/2,-z+1/2,y+1/2
  z+1/2,y+1/2,-x+1/2
  z+1/2,-y+1/2,x+1/2
  -z+1/2,y+1/2,x+1/2
  -z+1/2,-y+1/2,-x+1/2
  -x,-y,-z
  x,y,-z
  x,-y,z
  -x,y,z
  -z,-x,-y
  -z,x,y
  z,x,-y
  z,-x,y
  -y,-z,-x
  y,-z,x
  -y,z,x
  y,z,-x
  -y+1/2,-x+1/2,z+1/2
  y+1/2,x+1/2,z+1/2
  -y+1/2,x+1/2,-z+1/2
  y+1/2,-x+1/2,-z+1/2
  -x+1/2,-z+1/2,y+1/2
  x+1/2,-z+1/2,-y+1/2
  x+1/2,z+1/2,y+1/2
  -x+1/2,z+1/2,-y+1/2
  -z+1/2,-y+1/2,x+1/2
  -z+1/2,y+1/2,-x+1/2
  z+1/2,-y+1/2,-x+1/2
  z+1/2,y+1/2,x+1/2
_cell_length_a                    46.5865
_cell_length_b                    46.5865
_cell_length_c                    46.5865
_cell_angle_alpha                 90.0000
_cell_angle_beta                  90.0000
_cell_angle_gamma                 90.0000
loop_
_atom_site_label
_atom_site_type_symbol
_atom_site_fract_x
_atom_site_fract_y
_atom_site_fract_z
_atom_site_U_iso_or_equiv
_atom_site_adp_type
_atom_site_occupancy
C1     C     0.89882   0.44199   0.25001   0.00000  Uiso   1.00
C2     C     0.89160   0.41268   0.25000   0.00000  Uiso   1.00
C5     C     0.94876   0.42807   0.25000   0.00000  Uiso   1.00
C7     C     0.94224   0.47469   0.25001   0.00000  Uiso   1.00
H1     H     0.88248   0.45850   0.25002   0.00000  Uiso   1.00
O1     O     0.86359   0.40301   0.25001   0.00000  Uiso   1.00
C193   C     0.19993   0.27885   0.24999   0.00000  Uiso   1.00
C195   C     0.21353   0.32916   0.25001   0.00000  Uiso   1.00
C196   C     0.18441   0.33649   0.25001   0.00000  Uiso   1.00
O49    O     0.20851   0.25033   0.24997   0.00000  Uiso   1.00
H49    H     0.22987   0.34568   0.25002   0.00000  Uiso   1.00
O51    O     0.17483   0.36454   0.25001   0.00000  Uiso   1.00
Fe1    Fe    0.25000   0.25000   0.25000   0.00000  Uiso   1.00
N1     N     0.97122   0.47122   0.25000   0.00000  Uiso   1.00
N2     N    -0.00000   0.42868   0.24999   0.00000  Uiso   1.00
Fe9    Ni    0.00000   0.50000   0.25000   0.00000  Uiso   1.00
Fe15   Cu    0.13592   0.36408   0.25000   0.00000  Uiso   1.00
loop_
_geom_bond_atom_site_label_1
_geom_bond_atom_site_label_2
_geom_bond_distance
_geom_bond_site_symmetry_2
_ccdc_geom_bond_type
C1     C2      1.406   .     A
C1     C5      1.399   13_545 A
C1     H1      1.082   .     S
C2     C2      1.388   13_545 A
C2     O1      1.381   .     S
C5     C1      1.399   13_545 A
C5     C5      1.363   13_545 A
C5     C7      1.376   13_545 A
C7     C5      1.376   13_545 A
C7     N1      1.360   .     A
C7     N2      1.338   13    A
O1     Fe15    1.814   28_655 S
C193   C193    1.398   14    A
C193   C195    1.401   14    A
C193   O49     1.387   .     S
C195   C193    1.401   14    A
C195   C196    1.399   .     A
C195   H49     1.082   .     S
C196   C196    1.377   14    A
C196   O51     1.381   .     S
O49    Fe1     1.933   .     S
O51    Fe15    1.813   .     S
Fe1    O49     1.933   5     S
Fe1    O49     1.933   9     S
Fe1    O49     1.933   14    S
Fe1    O49     1.933   19    S
Fe1    O49     1.933   24    S
N1     C7      1.360   13_545 A
N1     Fe9     1.896   1_655 S
N2     C7      1.338   13_445 A
N2     C7      1.338   39_545 A
Fe9    N1      1.896   28_655 S
Fe9    N1      1.896   27_465 S
Fe9    N1      1.896   2_665 S
Fe9    N1      1.896   1_455 S
Fe15   O1      1.814   39_545 S
Fe15   O1      1.814   28_655 S
Fe15   O51     1.813   14    S
