data_soc-spacer-PcMN_O-Fe3O
_audit_creation_date              2021-11-06
_audit_creation_method            'Materials Studio'
_symmetry_space_group_name_H-M    'P432'
_symmetry_Int_Tables_number       207
_symmetry_cell_setting            cubic
loop_
_symmetry_equiv_pos_as_xyz
  x,y,z
  -x,-y,z
  -x,y,-z
  x,-y,-z
  z,x,y
  z,-x,-y
  -z,-x,y
  -z,x,-y
  y,z,x
  -y,z,-x
  y,-z,-x
  -y,-z,x
  y,x,-z
  -y,-x,-z
  y,-x,z
  -y,x,z
  x,z,-y
  -x,z,y
  -x,-z,-y
  x,-z,y
  z,y,-x
  z,-y,x
  -z,y,x
  -z,-y,-x
_cell_length_a                    55.2876
_cell_length_b                    55.2876
_cell_length_c                    55.2876
_cell_angle_alpha                 90.0000
_cell_angle_beta                  90.0000
_cell_angle_gamma                 90.0000
loop_
_atom_site_label
_atom_site_type_symbol
_atom_site_fract_x
_atom_site_fract_y
_atom_site_fract_z
_atom_site_U_iso_or_equiv
_atom_site_adp_type
_atom_site_occupancy
C1     C     0.91160   0.95741   0.24155   0.00000  Uiso   1.00
C2     C     0.87053   0.90434   0.24376   0.00000  Uiso   1.00
C3     C     0.88677   0.88552   0.24414   0.00000  Uiso   1.00
C4     C     0.94527   0.91851   0.24187   0.00000  Uiso   1.00
C5     C     0.95261   0.94264   0.24124   0.00000  Uiso   1.00
C6     C     0.93652   0.96122   0.24114   0.00000  Uiso   1.00
C7     C     0.94996   0.98217   0.24087   0.00000  Uiso   1.00
N8     N     0.97411   0.97754   0.24076   0.00000  Uiso   1.00
C9     C     0.97527   0.95298   0.24095   0.00000  Uiso   1.00
N10    N    -0.00426   0.94007   0.24102   0.00000  Uiso   1.00
H11    H     0.89918   0.97257   0.24149   0.00000  Uiso   1.00
O12    O     0.84638   0.89806   0.24454   0.00000  Uiso   1.00
O13    O     0.87696   0.86257   0.24540   0.00000  Uiso   1.00
H14    H     0.95850   0.90404   0.24207   0.00000  Uiso   1.00
C15    C     0.41503   0.45090   0.77884   0.00000  Uiso   1.00
C16    C     0.37805   0.39485   0.77891   0.00000  Uiso   1.00
C17    C     0.39566   0.37730   0.77891   0.00000  Uiso   1.00
C18    C     0.45153   0.41463   0.77885   0.00000  Uiso   1.00
C19    C     0.45704   0.43925   0.77883   0.00000  Uiso   1.00
C20    C     0.43960   0.45657   0.77883   0.00000  Uiso   1.00
C21    C     0.45144   0.47848   0.77882   0.00000  Uiso   1.00
N22    N     0.47586   0.47567   0.77881   0.00000  Uiso   1.00
C23    C     0.47885   0.45126   0.77882   0.00000  Uiso   1.00
N24    N     0.50023   0.43992   0.77882   0.00000  Uiso   1.00
H25    H     0.40150   0.46508   0.77884   0.00000  Uiso   1.00
O26    O     0.35443   0.38673   0.77893   0.00000  Uiso   1.00
O27    O     0.38762   0.35364   0.77895   0.00000  Uiso   1.00
H28    H     0.46580   0.40120   0.77885   0.00000  Uiso   1.00
Fe29   Fe    0.22246   0.25816   0.25855   0.00000  Uiso   1.00
Cu30   Cu    0.13457   0.84432   0.24667   0.00000  Uiso   1.00
Cu31   Cu    0.35397   0.77895   0.35483   0.00000  Uiso   1.00
O32    O     0.35436   0.77896   0.32206   0.00000  Uiso   1.00
O33    O     0.32116   0.77897   0.35520   0.00000  Uiso   1.00
C34    C     0.31310   0.77894   0.33155   0.00000  Uiso   1.00
C35    C     0.33074   0.77893   0.31397   0.00000  Uiso   1.00
C36    C     0.32463   0.77888   0.28944   0.00000  Uiso   1.00
C37    C     0.30015   0.77881   0.28296   0.00000  Uiso   1.00
C38    C     0.28220   0.77883   0.30078   0.00000  Uiso   1.00
C39    C     0.28856   0.77891   0.32532   0.00000  Uiso   1.00
O40    O     0.29304   0.77870   0.25891   0.00000  Uiso   1.00
O41    O     0.25818   0.77874   0.29347   0.00000  Uiso   1.00
H42    H     0.33858   0.77885   0.27570   0.00000  Uiso   1.00
H43    H     0.27476   0.77890   0.33921   0.00000  Uiso   1.00
O44    O     0.18828   0.86839   0.75207   0.00000  Uiso   1.00
O45    O     0.15778   0.83277   0.75106   0.00000  Uiso   1.00
C46    C     0.19811   0.84558   0.74966   0.00000  Uiso   1.00
C47    C     0.18193   0.82663   0.74912   0.00000  Uiso   1.00
C48    C     0.22299   0.84154   0.74761   0.00000  Uiso   1.00
C49    C     0.23128   0.81778   0.74503   0.00000  Uiso   1.00
C50    C     0.21486   0.79848   0.74466   0.00000  Uiso   1.00
C51    C     0.18992   0.80274   0.74645   0.00000  Uiso   1.00
O52    O     0.25593   0.81247   0.74308   0.00000  Uiso   1.00
O53    O     0.22514   0.77590   0.74117   0.00000  Uiso   1.00
H54    H     0.23560   0.85652   0.74802   0.00000  Uiso   1.00
H55    H     0.17698   0.78819   0.74538   0.00000  Uiso   1.00
C56    C     0.40794   0.57310   0.77887   0.00000  Uiso   1.00
C57    C     0.38342   0.57983   0.77889   0.00000  Uiso   1.00
C58    C     0.42623   0.59150   0.77886   0.00000  Uiso   1.00
C59    C     0.41938   0.61596   0.77888   0.00000  Uiso   1.00
H60    H     0.36927   0.56628   0.77890   0.00000  Uiso   1.00
H61    H     0.43285   0.63020   0.77888   0.00000  Uiso   1.00
C62    C     0.24220   0.90324   0.93331   0.00000  Uiso   1.00
C63    C     0.24278   0.87834   0.92833   0.00000  Uiso   1.00
C64    C     0.24244   0.92021   0.91369   0.00000  Uiso   1.00
C65    C     0.24340   0.91167   0.88976   0.00000  Uiso   1.00
H66    H     0.24259   0.86516   0.94284   0.00000  Uiso   1.00
H67    H     0.24370   0.92411   0.87463   0.00000  Uiso   1.00
Ni68   Ni    0.00000   0.00000   0.24074   0.00000  Uiso   1.00
Ni69   Ni    0.50000   0.50000   0.77881   0.00000  Uiso   1.00
O70    O     0.25747   0.25747   0.25747   0.00000  Uiso   1.00
loop_
_geom_bond_atom_site_label_1
_geom_bond_atom_site_label_2
_geom_bond_distance
_geom_bond_site_symmetry_2
_ccdc_geom_bond_type
C1     C6      1.394   .     A
C1     H11     1.084   .     S
C1     C62     1.411   9     A
C2     C3      1.374   .     A
C2     O12     1.380   .     S
C2     C63     1.396   9     A
C3     O13     1.382   .     S
C3     C65     1.397   9     A
C4     C5      1.395   .     A
C4     H14     1.084   .     S
C4     C64     1.411   9     A
C5     C6      1.359   .     A
C5     C9      1.377   .     A
C6     C7      1.376   .     A
C7     N8      1.359   .     A
C7     N10     1.338   15_565 A
N8     C9      1.359   .     A
N8     Ni68    1.895   1_665 S
C9     N10     1.338   1_655 A
N10    C7      1.338   16_655 A
N10    C9      1.338   1_455 A
O12    Cu30    1.811   15_565 S
O13    Cu30    1.813   15_565 S
C15    C20     1.394   .     A
C15    H25     1.084   .     S
C15    C58     1.411   16_655 A
C16    C17     1.374   .     A
C16    O26     1.381   .     S
C16    C59     1.396   16_655 A
C17    O27     1.382   .     S
C17    C57     1.397   16_655 A
C18    C19     1.395   .     A
C18    H28     1.084   .     S
C18    C56     1.411   16_655 A
C19    C20     1.359   .     A
C19    C23     1.377   .     A
C20    C21     1.377   .     A
C21    N22     1.359   .     A
C21    N24     1.338   15_565 A
N22    C23     1.359   .     A
N22    Ni69    1.895   .     S
C23    N24     1.338   .     A
N24    C21     1.338   16_655 A
O26    Cu31    1.811   5     S
O27    Cu31    1.813   5     S
Fe29   O70     1.937   .     S
Fe29   O40     1.930   16_655 S
Fe29   O41     1.932   16_655 S
Fe29   O52     1.938   12_665 S
Fe29   O53     1.889   4_566 S
Fe29   O53     1.850   12_665 S
Fe29   Fe29    2.807   5     S
Fe29   Fe29    2.807   9     S
Cu30   O13     1.813   16_655 S
Cu30   O12     1.811   16_655 S
Cu30   O44     1.811   14_666 S
Cu30   O45     1.814   14_666 S
Cu31   O26     1.811   9     S
Cu31   O27     1.813   9     S
Cu31   O32     1.812   .     S
Cu31   O33     1.814   .     S
O32    C35     1.380   .     S
O33    C34     1.381   .     S
C34    C35     1.377   .     A
C34    C39     1.400   .     A
C35    C36     1.398   .     A
C36    C37     1.400   .     A
C36    H42     1.082   .     S
C37    C38     1.399   .     A
C37    O40     1.386   .     S
C38    C39     1.402   .     A
C38    O41     1.388   .     S
C39    H43     1.082   .     S
O40    Fe29    1.930   15_565 S
O41    Fe29    1.932   15_565 S
O44    Cu30    1.811   14_666 S
O44    C46     1.380   .     S
O45    Cu30    1.814   14_666 S
O45    C47     1.382   .     S
C46    C47     1.378   .     A
C46    C48     1.398   .     A
C47    C51     1.400   .     A
C48    C49     1.399   .     A
C48    H54     1.082   .     S
C49    C50     1.401   .     A
C49    O52     1.398   .     S
C50    C51     1.402   .     A
C50    O53     1.385   .     S
C51    H55     1.078   .     S
O52    Fe29    1.938   6_566 S
O53    Fe29    1.889   4_566 S
O53    Fe29    1.850   6_566 S
C56    C18     1.411   15_565 A
C56    C57     1.405   .     A
C56    C58     1.435   .     A
C57    C17     1.397   15_565 A
C57    H60     1.083   .     S
C58    C15     1.411   15_565 A
C58    C59     1.405   .     A
C59    C16     1.396   15_565 A
C59    H61     1.084   .     S
C62    C1      1.411   5     A
C62    C63     1.404   .     A
C62    C64     1.435   .     A
C63    C2      1.396   5     A
C63    H66     1.084   .     S
C64    C4      1.411   5     A
C64    C65     1.406   .     A
C65    C3      1.397   5     A
C65    H67     1.083   .     S
Ni68   N8      1.895   2_665 S
Ni68   N8      1.895   1_445 S
Ni68   N8      1.895   16_645 S
Ni68   N8      1.895   15_465 S
Ni69   N22     1.895   2_665 S
Ni69   N22     1.895   15_565 S
Ni69   N22     1.895   16_655 S
O70    Fe29    1.937   5     S
O70    Fe29    1.937   9     S
