data_soc-PcMN_O-Fe3O
_audit_creation_date              2021-11-06
_audit_creation_method            'Materials Studio'
_symmetry_space_group_name_H-M    'P432'
_symmetry_Int_Tables_number       207
_symmetry_cell_setting            cubic
loop_
_symmetry_equiv_pos_as_xyz
  x,y,z
  -x,-y,z
  -x,y,-z
  x,-y,-z
  z,x,y
  z,-x,-y
  -z,-x,y
  -z,x,-y
  y,z,x
  -y,z,-x
  y,-z,-x
  -y,-z,x
  y,x,-z
  -y,-x,-z
  y,-x,z
  -y,x,z
  x,z,-y
  -x,z,y
  -x,-z,-y
  x,-z,y
  z,y,-x
  z,-y,x
  -z,y,x
  -z,-y,-x
_cell_length_a                    34.3294
_cell_length_b                    34.3294
_cell_length_c                    34.3294
_cell_angle_alpha                 90.0000
_cell_angle_beta                  90.0000
_cell_angle_gamma                 90.0000
loop_
_atom_site_label
_atom_site_type_symbol
_atom_site_fract_x
_atom_site_fract_y
_atom_site_fract_z
_atom_site_U_iso_or_equiv
_atom_site_adp_type
_atom_site_occupancy
C1     C     0.87425   0.09531   0.25055   0.00000  Uiso   1.00
C2     C     0.86872   0.13592   0.25324   0.00000  Uiso   1.00
C3     C     0.94358   0.10574   0.24794   0.00000  Uiso   1.00
C4     C     0.92677   0.04416   0.24673   0.00000  Uiso   1.00
H5     H     0.84987   0.07526   0.25094   0.00000  Uiso   1.00
C6     C     0.79798   0.89571   0.25646   0.00000  Uiso   1.00
C7     C     0.78334   0.85785   0.25993   0.00000  Uiso   1.00
H8     H     0.77804   0.92017   0.25655   0.00000  Uiso   1.00
O9     O     0.74334   0.85045   0.26348   0.00000  Uiso   1.00
C10    C     0.36350   0.57952   0.79637   0.00000  Uiso   1.00
C11    C     0.35309   0.61926   0.79641   0.00000  Uiso   1.00
C12    C     0.43117   0.59811   0.79565   0.00000  Uiso   1.00
C13    C     0.42193   0.53496   0.79580   0.00000  Uiso   1.00
H14    H     0.34168   0.55672   0.79674   0.00000  Uiso   1.00
C15    C     0.31186   0.37189   0.79537   0.00000  Uiso   1.00
C16    C     0.30165   0.33246   0.79578   0.00000  Uiso   1.00
H17    H     0.28917   0.39382   0.79467   0.00000  Uiso   1.00
O18    O     0.26291   0.32074   0.79507   0.00000  Uiso   1.00
N19    N     0.96634   0.04375   0.24596   0.00000  Uiso   1.00
N20    N     0.46128   0.53934   0.79564   0.00000  Uiso   1.00
N21    N     0.01247   0.09594   0.24721   0.00000  Uiso   1.00
N22    N     0.50074   0.59676   0.79572   0.00000  Uiso   1.00
Fe23   Fe    0.20581   0.26447   0.26284   0.00000  Uiso   1.00
C24    C     0.90162   0.16163   0.25307   0.00000  Uiso   1.00
C25    C     0.93965   0.14616   0.25027   0.00000  Uiso   1.00
C26    C     0.91230   0.08151   0.24803   0.00000  Uiso   1.00
C27    C     0.97603   0.08216   0.24667   0.00000  Uiso   1.00
H28    H     0.96510   0.16482   0.25048   0.00000  Uiso   1.00
C29    C     0.80855   0.82598   0.25961   0.00000  Uiso   1.00
C30    C     0.84876   0.83107   0.25680   0.00000  Uiso   1.00
O31    O     0.79079   0.79019   0.26448   0.00000  Uiso   1.00
H32    H     0.86812   0.80638   0.25824   0.00000  Uiso   1.00
C33    C     0.38269   0.64866   0.79576   0.00000  Uiso   1.00
C34    C     0.42236   0.63780   0.79548   0.00000  Uiso   1.00
C35    C     0.40302   0.57029   0.79591   0.00000  Uiso   1.00
C36    C     0.46624   0.57863   0.79558   0.00000  Uiso   1.00
H37    H     0.44538   0.65939   0.79512   0.00000  Uiso   1.00
C38    C     0.33037   0.30377   0.79688   0.00000  Uiso   1.00
C39    C     0.36976   0.31377   0.79712   0.00000  Uiso   1.00
O40    O     0.31883   0.26510   0.79764   0.00000  Uiso   1.00
H41    H     0.39157   0.29095   0.79777   0.00000  Uiso   1.00
Ni42   Ni    0.00000   0.00000   0.24590   0.00000  Uiso   1.00
Ni43   Ni    0.50000   0.50000   0.79564   0.00000  Uiso   1.00
O44    O     0.26233   0.26233   0.26233   0.00000  Uiso   1.00
loop_
_geom_bond_atom_site_label_1
_geom_bond_atom_site_label_2
_geom_bond_distance
_geom_bond_site_symmetry_2
_ccdc_geom_bond_type
C1     C2      1.410   .     A
C1     C26     1.392   .     A
C1     H5      1.084   .     S
C2     C24     1.433   .     A
C2     C30     1.401   15_565 A
C3     C25     1.396   .     A
C3     C26     1.359   .     A
C3     C27     1.378   .     A
C4     C26     1.375   .     A
C4     N19     1.359   .     A
C4     N21     1.338   16_655 A
C6     C24     1.406   16_655 A
C6     C7      1.398   .     A
C6     H8      1.083   .     S
C7     C29     1.395   .     A
C7     O9      1.402   .     S
O9     Fe23    1.943   7_665 S
C10    C11     1.410   .     A
C10    C35     1.393   .     A
C10    H14     1.084   .     S
C11    C33     1.433   .     A
C11    C39     1.402   15_565 A
C12    C34     1.396   .     A
C12    C35     1.359   .     A
C12    C36     1.377   .     A
C13    C35     1.376   .     A
C13    N20     1.359   .     A
C13    N22     1.338   16_655 A
C15    C33     1.405   16_655 A
C15    C16     1.398   .     A
C15    H17     1.084   .     S
C16    C38     1.394   .     A
C16    O18     1.390   .     S
O18    Fe23    1.932   21_556 S
N19    C27     1.360   .     A
N19    Ni42    1.895   1_655 S
N20    C36     1.360   .     A
N20    Ni43    1.895   .     S
N21    C4      1.338   15_565 A
N21    C27     1.338   1_455 A
N22    C36     1.338   .     A
N22    C13     1.338   15_565 A
Fe23   O44     1.942   .     S
Fe23   O40     1.926   23_655 S
Fe23   O9      1.943   10_656 S
Fe23   O31     1.846   10_656 S
Fe23   O31     1.881   2_665 S
Fe23   O18     1.932   23_655 S
Fe23   Fe23    2.809   5     S
Fe23   Fe23    2.809   9     S
C24    C25     1.412   .     A
C24    C6      1.406   15_565 A
C25    H28     1.084   .     S
C27    N21     1.338   1_655 A
C29    C30     1.395   .     A
C29    O31     1.382   .     S
C30    C2      1.401   16_655 A
C30    H32     1.078   .     S
O31    Fe23    1.846   7_665 S
O31    Fe23    1.881   2_665 S
C33    C34     1.412   .     A
C33    C15     1.405   15_565 A
C34    H37     1.084   .     S
C38    C39     1.395   .     A
C38    O40     1.386   .     S
C39    C11     1.402   16_655 A
C39    H41     1.084   .     S
O40    Fe23    1.926   21_556 S
Ni42   N19     1.895   15_565 S
Ni42   N19     1.895   16_545 S
Ni42   N19     1.895   2_655 S
Ni42   N19     1.895   1_455 S
Ni43   N20     1.895   15_565 S
Ni43   N20     1.895   16_655 S
Ni43   N20     1.895   2_665 S
O44    Fe23    1.942   5     S
O44    Fe23    1.942   9     S
