data_soc-PcM_O-Fe3O
_audit_creation_date              2021-11-06
_audit_creation_method            'Materials Studio'
_symmetry_space_group_name_H-M    'P432'
_symmetry_Int_Tables_number       207
_symmetry_cell_setting            cubic
loop_
_symmetry_equiv_pos_as_xyz
  x,y,z
  -x,-y,z
  -x,y,-z
  x,-y,-z
  z,x,y
  z,-x,-y
  -z,-x,y
  -z,x,-y
  y,z,x
  -y,z,-x
  y,-z,-x
  -y,-z,x
  y,x,-z
  -y,-x,-z
  y,-x,z
  -y,x,z
  x,z,-y
  -x,z,y
  -x,-z,-y
  x,-z,y
  z,y,-x
  z,-y,x
  -z,y,x
  -z,-y,-x
_cell_length_a                    27.4765
_cell_length_b                    27.4765
_cell_length_c                    27.4765
_cell_angle_alpha                 90.0000
_cell_angle_beta                  90.0000
_cell_angle_gamma                 90.0000
loop_
_atom_site_label
_atom_site_type_symbol
_atom_site_fract_x
_atom_site_fract_y
_atom_site_fract_z
_atom_site_U_iso_or_equiv
_atom_site_adp_type
_atom_site_occupancy
C1     C    -0.15265  -0.12431   0.26089   0.00000  Uiso   1.00
C2     C    -0.15737  -0.17508   0.26344   0.00000  Uiso   1.00
C3     C    -0.06559  -0.13483   0.25792   0.00000  Uiso   1.00
C4     C    -0.08935  -0.05849   0.25641   0.00000  Uiso   1.00
H5     H    -0.18349  -0.10017   0.26259   0.00000  Uiso   1.00
O6     O    -0.20131  -0.19866   0.26837   0.00000  Uiso   1.00
C7     C     0.33030   0.39945   0.80952   0.00000  Uiso   1.00
C8     C     0.31808   0.34986   0.80916   0.00000  Uiso   1.00
C9     C     0.41497   0.37662   0.80770   0.00000  Uiso   1.00
C10    C     0.40284   0.45556   0.80836   0.00000  Uiso   1.00
H11    H     0.30248   0.42734   0.81061   0.00000  Uiso   1.00
O12    O     0.26996   0.33527   0.81067   0.00000  Uiso   1.00
C13    C     0.18567   0.06916   0.73882   0.00000  Uiso   1.00
C14    C     0.20571   0.11633   0.73572   0.00000  Uiso   1.00
C15    C     0.10568   0.10569   0.74214   0.00000  Uiso   1.00
C16    C     0.10379   0.02614   0.74360   0.00000  Uiso   1.00
H17    H     0.20856   0.03711   0.73815   0.00000  Uiso   1.00
O18    O     0.25597   0.12458   0.73147   0.00000  Uiso   1.00
C19    C     0.67314   0.59604   0.19315   0.00000  Uiso   1.00
C20    C     0.68628   0.64562   0.19279   0.00000  Uiso   1.00
C21    C     0.58871   0.62042   0.19150   0.00000  Uiso   1.00
C22    C     0.59864   0.54139   0.19230   0.00000  Uiso   1.00
H23    H     0.70045   0.56767   0.19431   0.00000  Uiso   1.00
O24    O     0.73471   0.66034   0.19443   0.00000  Uiso   1.00
N25    N    -0.03998  -0.05623   0.25552   0.00000  Uiso   1.00
N26    N     0.45202   0.45044   0.80799   0.00000  Uiso   1.00
N27    N     0.02000  -0.11923   0.25701   0.00000  Uiso   1.00
N28    N     0.50190   0.37910   0.80805   0.00000  Uiso   1.00
Fe29   Fe    0.19498   0.26549   0.26917   0.00000  Uiso   1.00
Ni30   Ni    0.00000   0.00000   0.25545   0.00000  Uiso   1.00
Ni31   Ni    0.50000   0.50000   0.80798   0.00000  Uiso   1.00
O32    O     0.26578   0.26578   0.26578   0.00000  Uiso   1.00
loop_
_geom_bond_atom_site_label_1
_geom_bond_atom_site_label_2
_geom_bond_distance
_geom_bond_site_symmetry_2
_ccdc_geom_bond_type
C1     C2      1.403   .     A
C1     C15     1.391   14_556 A
C1     H5      1.077   .     S
C2     C14     1.407   14_556 A
C2     O6      1.377   .     S
C3     C13     1.403   14_556 A
C3     C15     1.362   14_556 A
C3     C16     1.380   14_556 A
C4     C15     1.373   14_556 A
C4     N25     1.358   .     A
C4     N27     1.339   15    A
O6     Fe29    1.869   7     S
O6     Fe29    1.844   2     S
C7     C8      1.403   .     A
C7     C21     1.393   14_666 A
C7     H11     1.083   .     S
C8     C20     1.408   14_666 A
C8     O12     1.382   .     S
C9     C19     1.400   14_666 A
C9     C21     1.361   14_666 A
C9     C22     1.378   14_666 A
C10    C21     1.374   14_666 A
C10    N26     1.359   .     A
C10    N28     1.339   15_565 A
O12    Fe29    1.924   21_556 S
C13    C14     1.411   .     A
C13    C3      1.403   14_556 A
C13    H17     1.082   .     S
C14    C2      1.407   14_556 A
C14    O18     1.404   .     S
C15    C1      1.391   14_556 A
C15    C3      1.362   14_556 A
C15    C4      1.373   14_556 A
C16    C3      1.380   14_556 A
C16    N25     1.361   14_556 A
C16    N27     1.337   14_556 A
O18    Fe29    1.952   13_556 S
C19    C20     1.409   .     A
C19    C9      1.400   14_666 A
C19    H23     1.082   .     S
C20    C8      1.408   14_666 A
C20    O24     1.392   .     S
C21    C7      1.393   14_666 A
C21    C9      1.361   14_666 A
C21    C10     1.374   14_666 A
C22    C9      1.378   14_666 A
C22    N26     1.361   14_666 A
C22    N28     1.337   14_666 A
O24    Fe29    1.937   12_665 S
N25    C16     1.361   14_556 A
N25    Ni30    1.896   .     S
N26    C22     1.361   14_666 A
N26    Ni31    1.895   .     S
N27    C16     1.337   14_556 A
N27    C4      1.339   16    A
N28    C22     1.337   14_666 A
N28    C10     1.339   16_655 A
Fe29   O32     1.948   .     S
Fe29   O24     1.937   6_566 S
Fe29   O12     1.924   23_655 S
Fe29   O6      1.869   10    S
Fe29   O6      1.844   2     S
Fe29   O18     1.952   13_556 S
Fe29   Fe29    2.814   5     S
Fe29   Fe29    2.814   9     S
Ni30   N25     1.896   2     S
Ni30   N25     1.896   16    S
Ni30   N25     1.896   15    S
Ni31   N26     1.895   2_665 S
Ni31   N26     1.895   15_565 S
Ni31   N26     1.895   16_655 S
O32    Fe29    1.948   5     S
O32    Fe29    1.948   9     S
