data_soc-spacer-PcM_O-Fe3O
_audit_creation_date              2021-11-06
_audit_creation_method            'Materials Studio'
_symmetry_space_group_name_H-M    'P432'
_symmetry_Int_Tables_number       207
_symmetry_cell_setting            cubic
loop_
_symmetry_equiv_pos_as_xyz
  x,y,z
  -x,-y,z
  -x,y,-z
  x,-y,-z
  z,x,y
  z,-x,-y
  -z,-x,y
  -z,x,-y
  y,z,x
  -y,z,-x
  y,-z,-x
  -y,-z,x
  y,x,-z
  -y,-x,-z
  y,-x,z
  -y,x,z
  x,z,-y
  -x,z,y
  -x,-z,-y
  x,-z,y
  z,y,-x
  z,-y,x
  -z,y,x
  -z,-y,-x
_cell_length_a                    48.4208
_cell_length_b                    48.4208
_cell_length_c                    48.4208
_cell_angle_alpha                 90.0000
_cell_angle_beta                  90.0000
_cell_angle_gamma                 90.0000
loop_
_atom_site_label
_atom_site_type_symbol
_atom_site_fract_x
_atom_site_fract_y
_atom_site_fract_z
_atom_site_U_iso_or_equiv
_atom_site_adp_type
_atom_site_occupancy
C1     C     0.89829   0.95265   0.24288   0.00000  Uiso   1.00
C2     C     0.88898   0.92516   0.24369   0.00000  Uiso   1.00
C3     C     0.90745   0.90323   0.24395   0.00000  Uiso   1.00
C4     C     0.93613   0.90774   0.24325   0.00000  Uiso   1.00
C5     C     0.94502   0.93522   0.24246   0.00000  Uiso   1.00
C6     C     0.92687   0.95675   0.24234   0.00000  Uiso   1.00
C7     C     0.94256   0.98044   0.24201   0.00000  Uiso   1.00
N8     N     0.97007   0.97476   0.24186   0.00000  Uiso   1.00
C9     C     0.97102   0.94669   0.24210   0.00000  Uiso   1.00
N10    N    -0.00581   0.93163   0.24220   0.00000  Uiso   1.00
H11    H     0.88397   0.96982   0.24285   0.00000  Uiso   1.00
O12    O     0.86134   0.91822   0.24448   0.00000  Uiso   1.00
O13    O     0.89588   0.87719   0.24513   0.00000  Uiso   1.00
H14    H     0.95062   0.89072   0.24352   0.00000  Uiso   1.00
C15    C     0.40273   0.44407   0.78310   0.00000  Uiso   1.00
C16    C     0.39582   0.41586   0.78313   0.00000  Uiso   1.00
C17    C     0.41611   0.39560   0.78320   0.00000  Uiso   1.00
C18    C     0.44430   0.40258   0.78320   0.00000  Uiso   1.00
C19    C     0.45079   0.43073   0.78315   0.00000  Uiso   1.00
C20    C     0.43086   0.45062   0.78312   0.00000  Uiso   1.00
C21    C     0.44446   0.47557   0.78312   0.00000  Uiso   1.00
N22    N     0.47235   0.47228   0.78313   0.00000  Uiso   1.00
C23    C     0.47572   0.44439   0.78314   0.00000  Uiso   1.00
N24    N     0.50009   0.43138   0.78313   0.00000  Uiso   1.00
H25    H     0.38699   0.45994   0.78306   0.00000  Uiso   1.00
O26    O     0.36887   0.40655   0.78309   0.00000  Uiso   1.00
O27    O     0.40682   0.36864   0.78327   0.00000  Uiso   1.00
H28    H     0.46020   0.38687   0.78324   0.00000  Uiso   1.00
Fe29   Fe    0.21857   0.25954   0.25960   0.00000  Uiso   1.00
Cu30   Cu    0.11907   0.85864   0.24662   0.00000  Uiso   1.00
Cu31   Cu    0.36910   0.78318   0.36937   0.00000  Uiso   1.00
O32    O     0.36954   0.78306   0.33194   0.00000  Uiso   1.00
O33    O     0.33165   0.78329   0.36980   0.00000  Uiso   1.00
C34    C     0.32244   0.78319   0.34280   0.00000  Uiso   1.00
C35    C     0.34256   0.78305   0.32271   0.00000  Uiso   1.00
C36    C     0.33554   0.78288   0.29470   0.00000  Uiso   1.00
C37    C     0.30757   0.78284   0.28734   0.00000  Uiso   1.00
C38    C     0.28712   0.78304   0.30773   0.00000  Uiso   1.00
C39    C     0.29442   0.78322   0.33573   0.00000  Uiso   1.00
O40    O     0.29939   0.78259   0.25989   0.00000  Uiso   1.00
O41    O     0.25968   0.78303   0.29945   0.00000  Uiso   1.00
H42    H     0.35145   0.78272   0.27899   0.00000  Uiso   1.00
H43    H     0.27869   0.78334   0.35161   0.00000  Uiso   1.00
O44    O     0.17857   0.88466   0.75188   0.00000  Uiso   1.00
O45    O     0.14413   0.84366   0.75107   0.00000  Uiso   1.00
C46    C     0.19004   0.85870   0.74925   0.00000  Uiso   1.00
C47    C     0.17175   0.83690   0.74880   0.00000  Uiso   1.00
C48    C     0.21848   0.85430   0.74684   0.00000  Uiso   1.00
C49    C     0.22816   0.82721   0.74401   0.00000  Uiso   1.00
C50    C     0.20957   0.80505   0.74376   0.00000  Uiso   1.00
C51    C     0.18108   0.80970   0.74586   0.00000  Uiso   1.00
O52    O     0.25634   0.82131   0.74171   0.00000  Uiso   1.00
O53    O     0.22147   0.77934   0.73988   0.00000  Uiso   1.00
H54    H     0.23274   0.87151   0.74717   0.00000  Uiso   1.00
H55    H     0.16642   0.79297   0.74476   0.00000  Uiso   1.00
Ni56   Ni    0.00000   0.00000   0.24185   0.00000  Uiso   1.00
Ni57   Ni    0.50000   0.50000   0.78312   0.00000  Uiso   1.00
O58    O     0.25857   0.25857   0.25857   0.00000  Uiso   1.00
loop_
_geom_bond_atom_site_label_1
_geom_bond_atom_site_label_2
_geom_bond_distance
_geom_bond_site_symmetry_2
_ccdc_geom_bond_type
C1     C2      1.406   .     A
C1     C6      1.398   .     A
C1     H11     1.082   .     S
C2     C3      1.388   .     A
C2     O12     1.380   .     S
C3     C4      1.406   .     A
C3     O13     1.381   .     S
C4     C5      1.399   .     A
C4     H14     1.082   .     S
C5     C6      1.363   .     A
C5     C9      1.376   .     A
C6     C7      1.376   .     A
C7     N8      1.360   .     A
C7     N10     1.338   15_565 A
N8     C9      1.360   .     A
N8     Ni56    1.896   1_665 S
C9     N10     1.338   1_655 A
N10    C7      1.338   16_655 A
N10    C9      1.338   1_455 A
O12    Cu30    1.813   15_565 S
O13    Cu30    1.814   15_565 S
C15    C16     1.406   .     A
C15    C20     1.398   .     A
C15    H25     1.082   .     S
C16    C17     1.388   .     A
C16    O26     1.380   .     S
C17    C18     1.406   .     A
C17    O27     1.381   .     S
C18    C19     1.399   .     A
C18    H28     1.082   .     S
C19    C20     1.363   .     A
C19    C23     1.376   .     A
C20    C21     1.376   .     A
C21    N22     1.360   .     A
C21    N24     1.338   15_565 A
N22    C23     1.360   .     A
N22    Ni57    1.896   .     S
C23    N24     1.338   .     A
N24    C21     1.338   16_655 A
O26    Cu31    1.813   5     S
O27    Cu31    1.814   5     S
Fe29   O58     1.938   .     S
Fe29   O40     1.931   16_655 S
Fe29   O41     1.931   16_655 S
Fe29   O52     1.939   12_665 S
Fe29   O53     1.888   4_566 S
Fe29   O53     1.849   12_665 S
Fe29   Fe29    2.807   5     S
Fe29   Fe29    2.807   9     S
Cu30   O13     1.814   16_655 S
Cu30   O12     1.813   16_655 S
Cu30   O44     1.812   14_666 S
Cu30   O45     1.813   14_666 S
Cu31   O26     1.813   9     S
Cu31   O27     1.814   9     S
Cu31   O32     1.812   .     S
Cu31   O33     1.813   .     S
O32    C35     1.381   .     S
O33    C34     1.381   .     S
C34    C35     1.377   .     A
C34    C39     1.399   .     A
C35    C36     1.398   .     A
C36    C37     1.401   .     A
C36    H42     1.082   .     S
C37    C38     1.399   .     A
C37    O40     1.387   .     S
C38    C39     1.401   .     A
C38    O41     1.388   .     S
C39    H43     1.082   .     S
O40    Fe29    1.931   15_565 S
O41    Fe29    1.931   15_565 S
O44    Cu30    1.812   14_666 S
O44    C46     1.381   .     S
O45    Cu30    1.813   14_666 S
O45    C47     1.381   .     S
C46    C47     1.378   .     A
C46    C48     1.399   .     A
C47    C51     1.400   .     A
C48    C49     1.400   .     A
C48    H54     1.082   .     S
C49    C50     1.401   .     A
C49    O52     1.399   .     S
C50    C51     1.401   .     A
C50    O53     1.384   .     S
C51    H55     1.078   .     S
O52    Fe29    1.939   6_566 S
O53    Fe29    1.888   4_566 S
O53    Fe29    1.849   6_566 S
Ni56   N8      1.896   2_665 S
Ni56   N8      1.896   1_445 S
Ni56   N8      1.896   16_645 S
Ni56   N8      1.896   15_465 S
Ni57   N22     1.896   2_665 S
Ni57   N22     1.896   15_565 S
Ni57   N22     1.896   16_655 S
O58    Fe29    1.938   5     S
O58    Fe29    1.938   9     S
