data_spn-spacer-B_O-Fe3O
_audit_creation_date              2021-11-06
_audit_creation_method            'Materials Studio'
_symmetry_space_group_name_H-M    'F23'
_symmetry_Int_Tables_number       196
_symmetry_cell_setting            cubic
loop_
_symmetry_equiv_pos_as_xyz
  x,y,z
  -x,-y,z
  -x,y,-z
  x,-y,-z
  z,x,y
  z,-x,-y
  -z,-x,y
  -z,x,-y
  y,z,x
  -y,z,-x
  y,-z,-x
  -y,-z,x
  x,y+1/2,z+1/2
  -x,-y+1/2,z+1/2
  -x,y+1/2,-z+1/2
  x,-y+1/2,-z+1/2
  z,x+1/2,y+1/2
  z,-x+1/2,-y+1/2
  -z,-x+1/2,y+1/2
  -z,x+1/2,-y+1/2
  y,z+1/2,x+1/2
  -y,z+1/2,-x+1/2
  y,-z+1/2,-x+1/2
  -y,-z+1/2,x+1/2
  x+1/2,y,z+1/2
  -x+1/2,-y,z+1/2
  -x+1/2,y,-z+1/2
  x+1/2,-y,-z+1/2
  z+1/2,x,y+1/2
  z+1/2,-x,-y+1/2
  -z+1/2,-x,y+1/2
  -z+1/2,x,-y+1/2
  y+1/2,z,x+1/2
  -y+1/2,z,-x+1/2
  y+1/2,-z,-x+1/2
  -y+1/2,-z,x+1/2
  x+1/2,y+1/2,z
  -x+1/2,-y+1/2,z
  -x+1/2,y+1/2,-z
  x+1/2,-y+1/2,-z
  z+1/2,x+1/2,y
  z+1/2,-x+1/2,-y
  -z+1/2,-x+1/2,y
  -z+1/2,x+1/2,-y
  y+1/2,z+1/2,x
  -y+1/2,z+1/2,-x
  y+1/2,-z+1/2,-x
  -y+1/2,-z+1/2,x
_cell_length_a                    56.1785
_cell_length_b                    56.1785
_cell_length_c                    56.1785
_cell_angle_alpha                 90.0000
_cell_angle_beta                  90.0000
_cell_angle_gamma                 90.0000
loop_
_atom_site_label
_atom_site_type_symbol
_atom_site_fract_x
_atom_site_fract_y
_atom_site_fract_z
_atom_site_U_iso_or_equiv
_atom_site_adp_type
_atom_site_occupancy
C1     C     0.17589   0.15819   0.30681   0.00000  Uiso   1.00
C2     C     0.19337   0.15840   0.32459   0.00000  Uiso   1.00
O1     O     0.17519   0.14179   0.28852   0.00000  Uiso   1.00
O2     O     0.21167   0.14206   0.32592   0.00000  Uiso   1.00
C97    C     0.05889   0.45456   0.58015   0.00000  Uiso   1.00
C98    C     0.04277   0.43573   0.57742   0.00000  Uiso   1.00
O97    O     0.05736   0.47140   0.59801   0.00000  Uiso   1.00
O98    O     0.02354   0.43198   0.59222   0.00000  Uiso   1.00
Fe1    Fe    0.11239   0.11121   0.14717   0.00000  Uiso   1.00
C193   C     0.13266   0.11346   0.19041   0.00000  Uiso   1.00
C194   C     0.11456   0.13056   0.19074   0.00000  Uiso   1.00
C195   C     0.11171   0.14555   0.21043   0.00000  Uiso   1.00
C196   C     0.12735   0.14322   0.22962   0.00000  Uiso   1.00
C197   C     0.14503   0.12625   0.22949   0.00000  Uiso   1.00
C198   C     0.14798   0.11103   0.20997   0.00000  Uiso   1.00
O209   O     0.13512   0.09945   0.17018   0.00000  Uiso   1.00
O210   O     0.09989   0.13247   0.17101   0.00000  Uiso   1.00
H1     H     0.09786   0.15895   0.21064   0.00000  Uiso   1.00
O211   O     0.12632   0.15768   0.24946   0.00000  Uiso   1.00
O212   O     0.15949   0.12559   0.24937   0.00000  Uiso   1.00
H2     H     0.16205   0.09786   0.20984   0.00000  Uiso   1.00
Fe49   Cu    0.15072   0.14972   0.26896   0.00000  Uiso   1.00
C481   C     0.13910   0.40630   0.43239   0.00000  Uiso   1.00
C482   C     0.12222   0.38819   0.42960   0.00000  Uiso   1.00
C483   C     0.10539   0.38361   0.44737   0.00000  Uiso   1.00
C484   C     0.10502   0.39828   0.46742   0.00000  Uiso   1.00
C485   C     0.12114   0.41658   0.47003   0.00000  Uiso   1.00
C486   C     0.13864   0.42077   0.45274   0.00000  Uiso   1.00
O401   O     0.15568   0.40968   0.41406   0.00000  Uiso   1.00
O402   O     0.12446   0.37499   0.40896   0.00000  Uiso   1.00
H97    H     0.09304   0.36901   0.44606   0.00000  Uiso   1.00
O403   O     0.08875   0.39544   0.48559   0.00000  Uiso   1.00
O404   O     0.11886   0.43008   0.49048   0.00000  Uiso   1.00
H98    H     0.15136   0.43508   0.45490   0.00000  Uiso   1.00
Fe97   Cu    0.09346   0.41896   0.50709   0.00000  Uiso   1.00
O193   O     0.13455   0.13455   0.13455   0.00000  Uiso   1.00
loop_
_geom_bond_atom_site_label_1
_geom_bond_atom_site_label_2
_geom_bond_distance
_geom_bond_site_symmetry_2
_ccdc_geom_bond_type
C1     C2      1.401   .     A
C1     C2      1.379   23    A
C1     O1      1.381   .     S
C2     C1      1.379   32    A
C2     O2      1.380   .     S
O1     Fe49    1.815   .     S
O2     Fe49    1.814   32    S
C97    C98     1.401   .     A
C97    C98     1.379   42_456 A
C97    O97     1.381   .     S
C98    C97     1.379   36_565 A
C98    O98     1.379   .     S
O97    Fe97    1.815   36_565 S
O98    Fe97    1.814   42_456 S
Fe1    O193    1.942   .     S
Fe1    O401    1.945   48    S
Fe1    O402    1.882   32    S
Fe1    O210    1.927   .     S
Fe1    O209    1.933   .     S
Fe1    O402    1.848   48    S
Fe1    Fe1     2.811   5     S
Fe1    Fe1     2.811   9     S
C193   C194    1.399   .     A
C193   C198    1.402   .     A
C193   O209    1.389   .     S
C194   C195    1.399   .     A
C194   O210    1.385   .     S
C195   C196    1.397   .     A
C195   H1      1.083   .     S
C196   C197    1.377   .     A
C196   O211    1.380   .     S
C197   C198    1.401   .     A
C197   O212    1.382   .     S
C198   H2      1.082   .     S
O211   Fe49    1.811   .     S
O212   Fe49    1.815   .     S
Fe49   O2      1.814   23    S
C481   C482    1.400   .     A
C481   C486    1.403   .     A
C481   O401    1.402   .     S
C482   C483    1.399   .     A
C482   O402    1.382   .     S
C483   C484    1.396   .     A
C483   H97     1.077   .     S
C484   C485    1.378   .     A
C484   O403    1.379   .     S
C485   C486    1.402   .     A
C485   O404    1.383   .     S
C486   H98     1.082   .     S
O401   Fe1     1.945   18    S
O402   Fe1     1.882   23    S
O402   Fe1     1.848   18    S
O403   Fe97    1.809   .     S
O404   Fe97    1.816   .     S
Fe97   O97     1.815   42_456 S
Fe97   O98     1.814   36_565 S
O193   Fe1     1.942   5     S
O193   Fe1     1.942   9     S
