data_spn-TN_O-Fe3O
_audit_creation_date              2021-11-06
_audit_creation_method            'Materials Studio'
_symmetry_space_group_name_H-M    'F23'
_symmetry_Int_Tables_number       196
_symmetry_cell_setting            cubic
loop_
_symmetry_equiv_pos_as_xyz
  x,y,z
  -x,-y,z
  -x,y,-z
  x,-y,-z
  z,x,y
  z,-x,-y
  -z,-x,y
  -z,x,-y
  y,z,x
  -y,z,-x
  y,-z,-x
  -y,-z,x
  x,y+1/2,z+1/2
  -x,-y+1/2,z+1/2
  -x,y+1/2,-z+1/2
  x,-y+1/2,-z+1/2
  z,x+1/2,y+1/2
  z,-x+1/2,-y+1/2
  -z,-x+1/2,y+1/2
  -z,x+1/2,-y+1/2
  y,z+1/2,x+1/2
  -y,z+1/2,-x+1/2
  y,-z+1/2,-x+1/2
  -y,-z+1/2,x+1/2
  x+1/2,y,z+1/2
  -x+1/2,-y,z+1/2
  -x+1/2,y,-z+1/2
  x+1/2,-y,-z+1/2
  z+1/2,x,y+1/2
  z+1/2,-x,-y+1/2
  -z+1/2,-x,y+1/2
  -z+1/2,x,-y+1/2
  y+1/2,z,x+1/2
  -y+1/2,z,-x+1/2
  y+1/2,-z,-x+1/2
  -y+1/2,-z,x+1/2
  x+1/2,y+1/2,z
  -x+1/2,-y+1/2,z
  -x+1/2,y+1/2,-z
  x+1/2,-y+1/2,-z
  z+1/2,x+1/2,y
  z+1/2,-x+1/2,-y
  -z+1/2,-x+1/2,y
  -z+1/2,x+1/2,-y
  y+1/2,z+1/2,x
  -y+1/2,z+1/2,-x
  y+1/2,-z+1/2,-x
  -y+1/2,-z+1/2,x
_cell_length_a                    44.2501
_cell_length_b                    44.2501
_cell_length_c                    44.2501
_cell_angle_alpha                 90.0000
_cell_angle_beta                  90.0000
_cell_angle_gamma                 90.0000
loop_
_atom_site_label
_atom_site_type_symbol
_atom_site_fract_x
_atom_site_fract_y
_atom_site_fract_z
_atom_site_U_iso_or_equiv
_atom_site_adp_type
_atom_site_occupancy
C1     C     0.15574   0.17986   0.29867   0.00000  Uiso   1.00
C2     C     0.22371   0.17465   0.36691   0.00000  Uiso   1.00
C3     C     0.24667   0.15311   0.36528   0.00000  Uiso   1.00
C4     C     0.16149   0.27181   0.38796   0.00000  Uiso   1.00
C5     C     0.13925   0.29430   0.38849   0.00000  Uiso   1.00
H6     H     0.22346   0.18857   0.38687   0.00000  Uiso   1.00
H7     H     0.18041   0.27328   0.40343   0.00000  Uiso   1.00
O8     O     0.14091   0.31905   0.40791   0.00000  Uiso   1.00
C9     C     0.03705   0.41795   0.56579   0.00000  Uiso   1.00
C10    C     0.11179   0.47843   0.55534   0.00000  Uiso   1.00
C11    C     0.11494   0.50366   0.57405   0.00000  Uiso   1.00
C12    C     0.11510   0.40428   0.46534   0.00000  Uiso   1.00
C13    C     0.11000   0.38116   0.44459   0.00000  Uiso   1.00
H14    H     0.12968   0.47495   0.53926   0.00000  Uiso   1.00
H15    H     0.13333   0.42002   0.46201   0.00000  Uiso   1.00
O16    O     0.12635   0.37740   0.41829   0.00000  Uiso   1.00
Fe17   Fe    0.10582   0.11033   0.15283   0.00000  Uiso   1.00
C18    C     0.17756   0.15616   0.29834   0.00000  Uiso   1.00
C19    C     0.24793   0.13311   0.34062   0.00000  Uiso   1.00
C20    C     0.22548   0.13451   0.31846   0.00000  Uiso   1.00
C21    C     0.11493   0.29275   0.36858   0.00000  Uiso   1.00
C22    C     0.11227   0.26900   0.34813   0.00000  Uiso   1.00
H23    H     0.22813   0.11933   0.29963   0.00000  Uiso   1.00
O24    O     0.09400   0.31591   0.36890   0.00000  Uiso   1.00
H25    H     0.09324   0.26857   0.33271   0.00000  Uiso   1.00
C26    C     0.04156   0.44212   0.58666   0.00000  Uiso   1.00
C27    C     0.09325   0.50905   0.59660   0.00000  Uiso   1.00
C28    C     0.06926   0.48896   0.60048   0.00000  Uiso   1.00
C29    C     0.08827   0.35908   0.45003   0.00000  Uiso   1.00
C30    C     0.07027   0.36075   0.47600   0.00000  Uiso   1.00
H31    H     0.05300   0.49509   0.61750   0.00000  Uiso   1.00
O32    O     0.08426   0.33657   0.42802   0.00000  Uiso   1.00
H33    H     0.05296   0.34384   0.47971   0.00000  Uiso   1.00
O34    O     0.13685   0.13685   0.13685   0.00000  Uiso   1.00
loop_
_geom_bond_atom_site_label_1
_geom_bond_atom_site_label_2
_geom_bond_distance
_geom_bond_site_symmetry_2
_ccdc_geom_bond_type
C1     C18     1.426   .     A
C1     C18     1.427   23    A
C1     C20     1.425   23    A
C2     C18     1.418   32    A
C2     C3      1.395   .     A
C2     H6      1.077   .     S
C3     C19     1.406   .     A
C3     C22     1.402   23    A
C4     C19     1.412   32    A
C4     C5      1.400   .     A
C4     H7      1.084   .     S
C5     C21     1.392   .     A
C5     O8      1.394   .     S
O8     Fe17    1.936   23    S
C9     C26     1.427   .     A
C9     C26     1.428   36_565 A
C9     C28     1.419   36_565 A
C10    C26     1.426   42_456 A
C10    C11     1.397   .     A
C10    H14     1.076   .     S
C11    C27     1.405   .     A
C11    C30     1.412   36_565 A
C12    C27     1.403   42_456 A
C12    C13     1.393   .     A
C12    H15     1.076   .     S
C13    C29     1.392   .     A
C13    O16     1.380   .     S
O16    Fe17    1.878   18    S
O16    Fe17    1.852   23    S
Fe17   O34     1.940   .     S
Fe17   O24     1.920   32    S
Fe17   O8      1.936   32    S
Fe17   O16     1.878   48    S
Fe17   O16     1.852   32    S
Fe17   O32     1.948   32    S
Fe17   Fe17    2.811   9     S
Fe17   Fe17    2.811   5     S
C18    C1      1.427   32    A
C18    C2      1.418   23    A
C19    C20     1.397   .     A
C19    C4      1.412   23    A
C20    C1      1.425   32    A
C20    H23     1.077   .     S
C21    C22     1.392   .     A
C21    O24     1.381   .     S
C22    C3      1.402   32    A
C22    H25     1.084   .     S
O24    Fe17    1.920   23    S
C26    C9      1.428   42_456 A
C26    C10     1.426   36_565 A
C27    C28     1.395   .     A
C27    C12     1.403   36_565 A
C28    C9      1.419   42_456 A
C28    H31     1.076   .     S
C29    C30     1.400   .     A
C29    O32     1.405   .     S
C30    C11     1.412   42_456 A
C30    H33     1.083   .     S
O32    Fe17    1.948   23    S
O34    Fe17    1.940   5     S
O34    Fe17    1.940   9     S
