data_spn-spacer-TN_O-Fe3O
_audit_creation_date              2021-11-06
_audit_creation_method            'Materials Studio'
_symmetry_space_group_name_H-M    'F23'
_symmetry_Int_Tables_number       196
_symmetry_cell_setting            cubic
loop_
_symmetry_equiv_pos_as_xyz
  x,y,z
  -x,-y,z
  -x,y,-z
  x,-y,-z
  z,x,y
  z,-x,-y
  -z,-x,y
  -z,x,-y
  y,z,x
  -y,z,-x
  y,-z,-x
  -y,-z,x
  x,y+1/2,z+1/2
  -x,-y+1/2,z+1/2
  -x,y+1/2,-z+1/2
  x,-y+1/2,-z+1/2
  z,x+1/2,y+1/2
  z,-x+1/2,-y+1/2
  -z,-x+1/2,y+1/2
  -z,x+1/2,-y+1/2
  y,z+1/2,x+1/2
  -y,z+1/2,-x+1/2
  y,-z+1/2,-x+1/2
  -y,-z+1/2,x+1/2
  x+1/2,y,z+1/2
  -x+1/2,-y,z+1/2
  -x+1/2,y,-z+1/2
  x+1/2,-y,-z+1/2
  z+1/2,x,y+1/2
  z+1/2,-x,-y+1/2
  -z+1/2,-x,y+1/2
  -z+1/2,x,-y+1/2
  y+1/2,z,x+1/2
  -y+1/2,z,-x+1/2
  y+1/2,-z,-x+1/2
  -y+1/2,-z,x+1/2
  x+1/2,y+1/2,z
  -x+1/2,-y+1/2,z
  -x+1/2,y+1/2,-z
  x+1/2,-y+1/2,-z
  z+1/2,x+1/2,y
  z+1/2,-x+1/2,-y
  -z+1/2,-x+1/2,y
  -z+1/2,x+1/2,-y
  y+1/2,z+1/2,x
  -y+1/2,z+1/2,-x
  y+1/2,-z+1/2,-x
  -y+1/2,-z+1/2,x
_cell_length_a                    80.3074
_cell_length_b                    80.3074
_cell_length_c                    80.3074
_cell_angle_alpha                 90.0000
_cell_angle_beta                  90.0000
_cell_angle_gamma                 90.0000
loop_
_atom_site_label
_atom_site_type_symbol
_atom_site_fract_x
_atom_site_fract_y
_atom_site_fract_z
_atom_site_U_iso_or_equiv
_atom_site_adp_type
_atom_site_occupancy
C1     C     0.17187   0.18469   0.30300   0.00000  Uiso   1.00
C2     C     0.18411   0.17180   0.30306   0.00000  Uiso   1.00
C3     C     0.20914   0.18296   0.34098   0.00000  Uiso   1.00
C4     C     0.22189   0.17116   0.34043   0.00000  Uiso   1.00
C5     C     0.22258   0.15977   0.32715   0.00000  Uiso   1.00
C6     C     0.21033   0.16021   0.31483   0.00000  Uiso   1.00
C7     C     0.17356   0.23559   0.35199   0.00000  Uiso   1.00
C8     C     0.16110   0.24771   0.35208   0.00000  Uiso   1.00
C9     C     0.14821   0.24709   0.34089   0.00000  Uiso   1.00
C10    C     0.14711   0.23424   0.32924   0.00000  Uiso   1.00
H11    H     0.20899   0.19089   0.35177   0.00000  Uiso   1.00
H12    H     0.21191   0.15152   0.30475   0.00000  Uiso   1.00
H13    H     0.18365   0.23636   0.36092   0.00000  Uiso   1.00
O14    O     0.16096   0.26092   0.36310   0.00000  Uiso   1.00
O15    O     0.13674   0.25987   0.34181   0.00000  Uiso   1.00
H16    H     0.13681   0.23403   0.32052   0.00000  Uiso   1.00
C17    C     0.04211   0.43284   0.55636   0.00000  Uiso   1.00
C18    C     0.04349   0.44570   0.56854   0.00000  Uiso   1.00
C19    C     0.08200   0.46802   0.55416   0.00000  Uiso   1.00
C20    C     0.08286   0.48126   0.56538   0.00000  Uiso   1.00
C21    C     0.07029   0.48323   0.57743   0.00000  Uiso   1.00
C22    C     0.05726   0.47175   0.57817   0.00000  Uiso   1.00
C23    C     0.08868   0.42895   0.50332   0.00000  Uiso   1.00
C24    C     0.08766   0.41574   0.49208   0.00000  Uiso   1.00
C25    C     0.07582   0.40356   0.49393   0.00000  Uiso   1.00
C26    C     0.06462   0.40394   0.50721   0.00000  Uiso   1.00
H27    H     0.09231   0.46692   0.54568   0.00000  Uiso   1.00
H28    H     0.04779   0.47431   0.58729   0.00000  Uiso   1.00
H29    H     0.09811   0.43844   0.50159   0.00000  Uiso   1.00
O30    O     0.09822   0.41406   0.47859   0.00000  Uiso   1.00
O31    O     0.07570   0.39120   0.48198   0.00000  Uiso   1.00
H32    H     0.05539   0.39417   0.50841   0.00000  Uiso   1.00
Fe33   Fe    0.11551   0.11624   0.14058   0.00000  Uiso   1.00
Cu34   Cu    0.35797   0.64340   0.77413   0.00000  Uiso   1.00
O35    O     0.37415   0.65005   0.78842   0.00000  Uiso   1.00
O36    O     0.35269   0.62595   0.78743   0.00000  Uiso   1.00
C37    C     0.37386   0.63961   0.80208   0.00000  Uiso   1.00
C38    C     0.36237   0.62688   0.80160   0.00000  Uiso   1.00
C39    C     0.36071   0.61583   0.81495   0.00000  Uiso   1.00
C40    C     0.37093   0.61794   0.82892   0.00000  Uiso   1.00
C41    C     0.38277   0.63070   0.82932   0.00000  Uiso   1.00
C42    C     0.38435   0.64166   0.81584   0.00000  Uiso   1.00
O43    O     0.39263   0.63226   0.84343   0.00000  Uiso   1.00
O44    O     0.36949   0.60767   0.84273   0.00000  Uiso   1.00
H45    H     0.39337   0.65167   0.81615   0.00000  Uiso   1.00
H46    H     0.35154   0.60596   0.81457   0.00000  Uiso   1.00
Cu47   Cu    0.10425   0.53301   0.59193   0.00000  Uiso   1.00
O48    O     0.09976   0.54801   0.60821   0.00000  Uiso   1.00
O49    O     0.12245   0.54467   0.58548   0.00000  Uiso   1.00
C50    C     0.11137   0.56066   0.60719   0.00000  Uiso   1.00
C51    C     0.12337   0.55891   0.59506   0.00000  Uiso   1.00
C52    C     0.13565   0.57104   0.59276   0.00000  Uiso   1.00
C53    C     0.13547   0.58517   0.60294   0.00000  Uiso   1.00
C54    C     0.12328   0.58696   0.61531   0.00000  Uiso   1.00
C55    C     0.11124   0.57455   0.61773   0.00000  Uiso   1.00
O56    O     0.12470   0.60120   0.62495   0.00000  Uiso   1.00
O57    O     0.14693   0.59809   0.60082   0.00000  Uiso   1.00
H58    H     0.14496   0.56964   0.58312   0.00000  Uiso   1.00
H59    H     0.10211   0.57543   0.62752   0.00000  Uiso   1.00
O60    O     0.13170   0.13170   0.13170   0.00000  Uiso   1.00
loop_
_geom_bond_atom_site_label_1
_geom_bond_atom_site_label_2
_geom_bond_distance
_geom_bond_site_symmetry_2
_ccdc_geom_bond_type
C1     C2      1.427   .     A
C1     C2      1.428   23    A
C1     C6      1.423   23    A
C2     C1      1.428   32    A
C2     C3      1.422   23    A
C3     C2      1.422   32    A
C3     C4      1.396   .     A
C3     H11     1.076   .     S
C4     C5      1.407   .     A
C4     C10     1.409   23    A
C5     C6      1.396   .     A
C5     C7      1.409   23    A
C6     C1      1.423   32    A
C6     H12     1.076   .     S
C7     C5      1.409   32    A
C7     C8      1.396   .     A
C7     H13     1.084   .     S
C8     C9      1.372   .     A
C8     O14     1.381   .     S
C9     C10     1.396   .     A
C9     O15     1.381   .     S
C10    C4      1.409   32    A
C10    H16     1.084   .     S
O14    Cu34    1.812   45_445 S
O15    Cu34    1.812   45_445 S
C17    C18     1.427   .     A
C17    C18     1.428   36_565 A
C17    C22     1.423   36_565 A
C18    C17     1.428   42_456 A
C18    C19     1.422   36_565 A
C19    C18     1.422   42_456 A
C19    C20     1.395   .     A
C19    H27     1.076   .     S
C20    C21     1.407   .     A
C20    C26     1.409   36_565 A
C21    C22     1.396   .     A
C21    C23     1.410   36_565 A
C22    C17     1.423   42_456 A
C22    H28     1.076   .     S
C23    C21     1.410   42_456 A
C23    C24     1.396   .     A
C23    H29     1.084   .     S
C24    C25     1.372   .     A
C24    O30     1.382   .     S
C25    C26     1.395   .     A
C25    O31     1.380   .     S
C26    C20     1.409   42_456 A
C26    H32     1.084   .     S
O30    Cu47    1.813   42_456 S
O31    Cu47    1.812   42_456 S
Fe33   O60     1.934   .     S
Fe33   O43     1.932   39_546 S
Fe33   O44     1.930   39_546 S
Fe33   O56     1.892   13_544 S
Fe33   O56     1.853   45_445 S
Fe33   O57     1.937   45_445 S
Fe33   Fe33    2.806   9     S
Fe33   Fe33    2.806   5     S
Cu34   O15     1.812   17    S
Cu34   O14     1.812   17    S
Cu34   O35     1.813   .     S
Cu34   O36     1.812   .     S
O35    C37     1.381   .     S
O36    C38     1.381   .     S
C37    C38     1.377   .     A
C37    C42     1.399   .     A
C38    C39     1.398   .     A
C39    C40     1.400   .     A
C39    H46     1.082   .     S
C40    C41     1.399   .     A
C40    O44     1.387   .     S
C41    C42     1.401   .     A
C41    O43     1.388   .     S
C42    H45     1.082   .     S
O43    Fe33    1.932   39_556 S
O44    Fe33    1.930   39_556 S
Cu47   O30     1.813   36_565 S
Cu47   O31     1.812   36_565 S
Cu47   O48     1.814   .     S
Cu47   O49     1.811   .     S
O48    C50     1.382   .     S
O49    C51     1.380   .     S
C50    C51     1.378   .     A
C50    C55     1.400   .     A
C51    C52     1.398   .     A
C52    C53     1.399   .     A
C52    H58     1.082   .     S
C53    C54     1.402   .     A
C53    O57     1.398   .     S
C54    C55     1.402   .     A
C54    O56     1.386   .     S
C55    H59     1.077   .     S
O56    Fe33    1.892   13    S
O56    Fe33    1.853   17    S
O57    Fe33    1.937   17    S
O60    Fe33    1.934   5     S
O60    Fe33    1.934   9     S
