data_spn-spacer-TP_O-Fe3O
_audit_creation_date              2021-11-06
_audit_creation_method            'Materials Studio'
_symmetry_space_group_name_H-M    'F23'
_symmetry_Int_Tables_number       196
_symmetry_cell_setting            cubic
loop_
_symmetry_equiv_pos_as_xyz
  x,y,z
  -x,-y,z
  -x,y,-z
  x,-y,-z
  z,x,y
  z,-x,-y
  -z,-x,y
  -z,x,-y
  y,z,x
  -y,z,-x
  y,-z,-x
  -y,-z,x
  x,y+1/2,z+1/2
  -x,-y+1/2,z+1/2
  -x,y+1/2,-z+1/2
  x,-y+1/2,-z+1/2
  z,x+1/2,y+1/2
  z,-x+1/2,-y+1/2
  -z,-x+1/2,y+1/2
  -z,x+1/2,-y+1/2
  y,z+1/2,x+1/2
  -y,z+1/2,-x+1/2
  y,-z+1/2,-x+1/2
  -y,-z+1/2,x+1/2
  x+1/2,y,z+1/2
  -x+1/2,-y,z+1/2
  -x+1/2,y,-z+1/2
  x+1/2,-y,-z+1/2
  z+1/2,x,y+1/2
  z+1/2,-x,-y+1/2
  -z+1/2,-x,y+1/2
  -z+1/2,x,-y+1/2
  y+1/2,z,x+1/2
  -y+1/2,z,-x+1/2
  y+1/2,-z,-x+1/2
  -y+1/2,-z,x+1/2
  x+1/2,y+1/2,z
  -x+1/2,-y+1/2,z
  -x+1/2,y+1/2,-z
  x+1/2,-y+1/2,-z
  z+1/2,x+1/2,y
  z+1/2,-x+1/2,-y
  -z+1/2,-x+1/2,y
  -z+1/2,x+1/2,-y
  y+1/2,z+1/2,x
  -y+1/2,z+1/2,-x
  y+1/2,-z+1/2,-x
  -y+1/2,-z+1/2,x
_cell_length_a                    68.3429
_cell_length_b                    68.3429
_cell_length_c                    68.3429
_cell_angle_alpha                 90.0000
_cell_angle_beta                  90.0000
_cell_angle_gamma                 90.0000
loop_
_atom_site_label
_atom_site_type_symbol
_atom_site_fract_x
_atom_site_fract_y
_atom_site_fract_z
_atom_site_U_iso_or_equiv
_atom_site_adp_type
_atom_site_occupancy
C1     C     0.16619   0.18120   0.30422   0.00000  Uiso   1.00
C2     C     0.18087   0.16623   0.30418   0.00000  Uiso   1.00
C7     C     0.21075   0.18013   0.34830   0.00000  Uiso   1.00
C8     C     0.22525   0.16593   0.34760   0.00000  Uiso   1.00
C9     C     0.22544   0.15223   0.33318   0.00000  Uiso   1.00
C10    C     0.21104   0.15197   0.31886   0.00000  Uiso   1.00
H1     H     0.21177   0.19019   0.36035   0.00000  Uiso   1.00
O1     O     0.24025   0.16492   0.36112   0.00000  Uiso   1.00
O2     O     0.24066   0.13891   0.33367   0.00000  Uiso   1.00
H2     H     0.21253   0.14066   0.30805   0.00000  Uiso   1.00
C289   C     0.07321   0.45622   0.55577   0.00000  Uiso   1.00
C290   C     0.05933   0.45804   0.57138   0.00000  Uiso   1.00
C295   C     0.02606   0.41529   0.56148   0.00000  Uiso   1.00
C296   C     0.01273   0.41736   0.57666   0.00000  Uiso   1.00
C297   C     0.01454   0.43208   0.58992   0.00000  Uiso   1.00
C298   C     0.02975   0.44548   0.58859   0.00000  Uiso   1.00
H97    H     0.02333   0.40323   0.55177   0.00000  Uiso   1.00
O97    O    -0.00297   0.40488   0.57922   0.00000  Uiso   1.00
O98    O     0.00048   0.43284   0.60444   0.00000  Uiso   1.00
H98    H     0.02995   0.45651   0.59979   0.00000  Uiso   1.00
Fe1    Fe    0.11391   0.11450   0.14326   0.00000  Uiso   1.00
C577   C     0.12998   0.11636   0.17904   0.00000  Uiso   1.00
C578   C     0.11585   0.13116   0.17878   0.00000  Uiso   1.00
C579   C     0.11383   0.14381   0.19480   0.00000  Uiso   1.00
C580   C     0.12632   0.14145   0.21085   0.00000  Uiso   1.00
C581   C     0.14020   0.12685   0.21109   0.00000  Uiso   1.00
C582   C     0.14222   0.11401   0.19530   0.00000  Uiso   1.00
O209   O     0.13165   0.10438   0.16275   0.00000  Uiso   1.00
O210   O     0.10423   0.13307   0.16224   0.00000  Uiso   1.00
H193   H     0.10300   0.15536   0.19464   0.00000  Uiso   1.00
O211   O     0.12577   0.15346   0.22710   0.00000  Uiso   1.00
O212   O     0.15190   0.12595   0.22754   0.00000  Uiso   1.00
H194   H     0.15324   0.10262   0.19553   0.00000  Uiso   1.00
Fe49   Cu    0.14533   0.14612   0.24346   0.00000  Uiso   1.00
C865   C     0.11357   0.37697   0.41973   0.00000  Uiso   1.00
C866   C     0.09872   0.36298   0.42171   0.00000  Uiso   1.00
C867   C     0.08658   0.36311   0.43822   0.00000  Uiso   1.00
C868   C     0.08962   0.37742   0.45256   0.00000  Uiso   1.00
C869   C     0.10447   0.39092   0.45073   0.00000  Uiso   1.00
C870   C     0.11688   0.39083   0.43446   0.00000  Uiso   1.00
O401   O     0.12480   0.37523   0.40296   0.00000  Uiso   1.00
O402   O     0.09615   0.34950   0.40651   0.00000  Uiso   1.00
H289   H     0.07490   0.35252   0.43973   0.00000  Uiso   1.00
O403   O     0.07821   0.37896   0.46917   0.00000  Uiso   1.00
O404   O     0.10625   0.40429   0.46577   0.00000  Uiso   1.00
H290   H     0.12877   0.40114   0.43361   0.00000  Uiso   1.00
Fe97   Cu    0.08671   0.39986   0.48313   0.00000  Uiso   1.00
O193   O     0.13285   0.13285   0.13285   0.00000  Uiso   1.00
loop_
_geom_bond_atom_site_label_1
_geom_bond_atom_site_label_2
_geom_bond_distance
_geom_bond_site_symmetry_2
_ccdc_geom_bond_type
C1     C2      1.433   .     A
C1     C2      1.427   23    A
C1     C10     1.426   23    A
C2     C1      1.427   32    A
C2     C7      1.425   23    A
C7     C2      1.425   32    A
C7     C8      1.388   .     A
C7     H1      1.075   .     S
C8     C9      1.360   .     A
C8     O1      1.382   .     S
C9     C10     1.388   .     A
C9     O2      1.382   .     S
C10    C1      1.426   32    A
C10    H2      1.075   .     S
O1     Fe49    1.810   32    S
O2     Fe49    1.811   32    S
C289   C290    1.433   .     A
C289   C290    1.427   42_456 A
C289   C298    1.426   42_456 A
C290   C289    1.427   36_565 A
C290   C295    1.425   42_456 A
C295   C290    1.425   36_565 A
C295   C296    1.388   .     A
C295   H97     1.075   .     S
C296   C297    1.359   .     A
C296   O97     1.382   .     S
C297   C298    1.388   .     A
C297   O98     1.382   .     S
C298   C289    1.426   36_565 A
C298   H98     1.075   .     S
O97    Fe97    1.810   42_456 S
O98    Fe97    1.811   42_456 S
Fe1    O193    1.938   .     S
Fe1    O401    1.888   48    S
Fe1    O402    1.940   32    S
Fe1    O209    1.929   .     S
Fe1    O210    1.932   .     S
Fe1    O401    1.850   32    S
Fe1    Fe1     2.808   9     S
Fe1    Fe1     2.808   5     S
C577   C578    1.399   .     A
C577   C582    1.400   .     A
C577   O209    1.387   .     S
C578   C579    1.401   .     A
C578   O210    1.388   .     S
C579   C580    1.399   .     A
C579   H193    1.082   .     S
C580   C581    1.377   .     A
C580   O211    1.381   .     S
C581   C582    1.398   .     A
C581   O212    1.381   .     S
C582   H194    1.082   .     S
O211   Fe49    1.813   .     S
O212   Fe49    1.812   .     S
Fe49   O1      1.810   23    S
Fe49   O2      1.811   23    S
C865   C866    1.401   .     A
C865   C870    1.401   .     A
C865   O401    1.384   .     S
C866   C867    1.401   .     A
C866   O402    1.400   .     S
C867   C868    1.400   .     A
C867   H289    1.082   .     S
C868   C869    1.378   .     A
C868   O403    1.381   .     S
C869   C870    1.398   .     A
C869   O404    1.380   .     S
C870   H290    1.077   .     S
O401   Fe1     1.888   18    S
O401   Fe1     1.850   23    S
O402   Fe1     1.940   23    S
O403   Fe97    1.813   .     S
O404   Fe97    1.812   .     S
Fe97   O97     1.810   36_565 S
Fe97   O98     1.811   36_565 S
O193   Fe1     1.938   5     S
O193   Fe1     1.938   9     S
