data_srs-D_O-Feoct
_audit_creation_date              2021-11-06
_audit_creation_method            'Materials Studio'
_symmetry_space_group_name_H-M    'P1'
_symmetry_Int_Tables_number       1
_symmetry_cell_setting            triclinic
loop_
_symmetry_equiv_pos_as_xyz
  x,y,z
_cell_length_a                    21.5353
_cell_length_b                    21.5353
_cell_length_c                    21.5353
_cell_angle_alpha                 90.0000
_cell_angle_beta                  90.0000
_cell_angle_gamma                 90.0000
loop_
_atom_site_label
_atom_site_type_symbol
_atom_site_fract_x
_atom_site_fract_y
_atom_site_fract_z
_atom_site_U_iso_or_equiv
_atom_site_adp_type
_atom_site_occupancy
Fe1    Fe    0.12500   0.12500   0.12500   0.00000  Uiso   1.00
Fe2    Fe    0.12500   0.87500   0.37500   0.00000  Uiso   1.00
Fe3    Fe    0.37500   0.87500   0.62500   0.00000  Uiso   1.00
Fe4    Fe    0.37500   0.12500   0.87500   0.00000  Uiso   1.00
Fe5    Fe    0.62500   0.37500   0.87500   0.00000  Uiso   1.00
Fe6    Fe    0.87500   0.37500   0.12500   0.00000  Uiso   1.00
Fe7    Fe    0.87500   0.62500   0.37500   0.00000  Uiso   1.00
Fe8    Fe    0.62500   0.62500   0.62500   0.00000  Uiso   1.00
C1     C     0.12500   0.04615   0.29615   0.00000  Uiso   1.00
C2     C     0.12501   0.06256   0.23328   0.00000  Uiso   1.00
C3     C     0.12499   0.01672   0.18744   0.00000  Uiso   1.00
C4     C     0.12500   0.95385   0.20385   0.00000  Uiso   1.00
C5     C     0.12501   0.93744   0.26672   0.00000  Uiso   1.00
C6     C     0.12499   0.98328   0.31256   0.00000  Uiso   1.00
H1     H     0.12500   0.08169   0.33169   0.00000  Uiso   1.00
O1     O     0.12506   0.12426   0.21473   0.00000  Uiso   1.00
O2     O     0.12494   0.03527   0.12574   0.00000  Uiso   1.00
H2     H     0.12500   0.91831   0.16831   0.00000  Uiso   1.00
O3     O     0.12506   0.87574   0.28527   0.00000  Uiso   1.00
O4     O     0.12494   0.96473   0.37426   0.00000  Uiso   1.00
C7     C     0.20385   0.87500   0.54615   0.00000  Uiso   1.00
C8     C     0.26672   0.87499   0.56256   0.00000  Uiso   1.00
C9     C     0.31256   0.87501   0.51672   0.00000  Uiso   1.00
C10    C     0.29615   0.87500   0.45385   0.00000  Uiso   1.00
C11    C     0.23328   0.87499   0.43744   0.00000  Uiso   1.00
C12    C     0.18744   0.87501   0.48328   0.00000  Uiso   1.00
H3     H     0.16831   0.87500   0.58169   0.00000  Uiso   1.00
O5     O     0.28527   0.87494   0.62426   0.00000  Uiso   1.00
O6     O     0.37426   0.87506   0.53527   0.00000  Uiso   1.00
H4     H     0.33169   0.87500   0.41831   0.00000  Uiso   1.00
O7     O     0.21473   0.87494   0.37574   0.00000  Uiso   1.00
O8     O     0.12574   0.87506   0.46473   0.00000  Uiso   1.00
C13    C     0.37500   0.95385   0.79615   0.00000  Uiso   1.00
C14    C     0.37501   0.01672   0.81256   0.00000  Uiso   1.00
C15    C     0.37499   0.06256   0.76672   0.00000  Uiso   1.00
C16    C     0.37500   0.04615   0.70385   0.00000  Uiso   1.00
C17    C     0.37501   0.98328   0.68744   0.00000  Uiso   1.00
C18    C     0.37499   0.93744   0.73328   0.00000  Uiso   1.00
H5     H     0.37500   0.91831   0.83169   0.00000  Uiso   1.00
O9     O     0.37506   0.03527   0.87426   0.00000  Uiso   1.00
O10    O     0.37494   0.12426   0.78527   0.00000  Uiso   1.00
H6     H     0.37500   0.08169   0.66831   0.00000  Uiso   1.00
O11    O     0.37506   0.96473   0.62574   0.00000  Uiso   1.00
O12    O     0.37494   0.87574   0.71473   0.00000  Uiso   1.00
C19    C     0.20385   0.12500   0.95385   0.00000  Uiso   1.00
C20    C     0.26672   0.12501   0.93744   0.00000  Uiso   1.00
C21    C     0.31256   0.12499   0.98328   0.00000  Uiso   1.00
C22    C     0.29615   0.12500   0.04615   0.00000  Uiso   1.00
C23    C     0.23328   0.12501   0.06256   0.00000  Uiso   1.00
C24    C     0.18744   0.12499   0.01672   0.00000  Uiso   1.00
H7     H     0.16831   0.12500   0.91831   0.00000  Uiso   1.00
O13    O     0.28527   0.12506   0.87574   0.00000  Uiso   1.00
O14    O     0.37426   0.12494   0.96473   0.00000  Uiso   1.00
H8     H     0.33169   0.12500   0.08169   0.00000  Uiso   1.00
O15    O     0.21473   0.12506   0.12426   0.00000  Uiso   1.00
O16    O     0.12574   0.12494   0.03527   0.00000  Uiso   1.00
C25    C     0.95385   0.20385   0.12500   0.00000  Uiso   1.00
C26    C     0.01672   0.18744   0.12499   0.00000  Uiso   1.00
C27    C     0.06256   0.23328   0.12501   0.00000  Uiso   1.00
C28    C     0.04615   0.29615   0.12500   0.00000  Uiso   1.00
C29    C     0.98328   0.31256   0.12499   0.00000  Uiso   1.00
C30    C     0.93744   0.26672   0.12501   0.00000  Uiso   1.00
H9     H     0.91831   0.16831   0.12500   0.00000  Uiso   1.00
O17    O     0.03527   0.12574   0.12494   0.00000  Uiso   1.00
O18    O     0.12426   0.21473   0.12506   0.00000  Uiso   1.00
H10    H     0.08169   0.33169   0.12500   0.00000  Uiso   1.00
O19    O     0.96473   0.37426   0.12494   0.00000  Uiso   1.00
O20    O     0.87574   0.28527   0.12506   0.00000  Uiso   1.00
C31    C     0.54615   0.20385   0.87500   0.00000  Uiso   1.00
C32    C     0.56256   0.26672   0.87499   0.00000  Uiso   1.00
C33    C     0.51672   0.31256   0.87501   0.00000  Uiso   1.00
C34    C     0.45385   0.29615   0.87500   0.00000  Uiso   1.00
C35    C     0.43744   0.23328   0.87499   0.00000  Uiso   1.00
C36    C     0.48328   0.18744   0.87501   0.00000  Uiso   1.00
H11    H     0.58169   0.16831   0.87500   0.00000  Uiso   1.00
O21    O     0.62426   0.28527   0.87494   0.00000  Uiso   1.00
O22    O     0.53527   0.37426   0.87506   0.00000  Uiso   1.00
H12    H     0.41831   0.33169   0.87500   0.00000  Uiso   1.00
O23    O     0.37574   0.21473   0.87494   0.00000  Uiso   1.00
O24    O     0.46473   0.12574   0.87506   0.00000  Uiso   1.00
C37    C     0.95385   0.79615   0.37500   0.00000  Uiso   1.00
C38    C     0.93744   0.73328   0.37499   0.00000  Uiso   1.00
C39    C     0.98328   0.68744   0.37501   0.00000  Uiso   1.00
C40    C     0.04615   0.70385   0.37500   0.00000  Uiso   1.00
C41    C     0.06256   0.76672   0.37499   0.00000  Uiso   1.00
C42    C     0.01672   0.81256   0.37501   0.00000  Uiso   1.00
H13    H     0.91831   0.83169   0.37500   0.00000  Uiso   1.00
O25    O     0.87574   0.71473   0.37494   0.00000  Uiso   1.00
O26    O     0.96473   0.62574   0.37506   0.00000  Uiso   1.00
H14    H     0.08169   0.66831   0.37500   0.00000  Uiso   1.00
O27    O     0.12426   0.78527   0.37494   0.00000  Uiso   1.00
O28    O     0.03527   0.87426   0.37506   0.00000  Uiso   1.00
C43    C     0.45385   0.70385   0.62500   0.00000  Uiso   1.00
C44    C     0.43744   0.76672   0.62501   0.00000  Uiso   1.00
C45    C     0.48328   0.81256   0.62499   0.00000  Uiso   1.00
C46    C     0.54615   0.79615   0.62500   0.00000  Uiso   1.00
C47    C     0.56256   0.73328   0.62501   0.00000  Uiso   1.00
C48    C     0.51672   0.68744   0.62499   0.00000  Uiso   1.00
H15    H     0.41831   0.66831   0.62500   0.00000  Uiso   1.00
O29    O     0.37574   0.78527   0.62506   0.00000  Uiso   1.00
O30    O     0.46473   0.87426   0.62494   0.00000  Uiso   1.00
H16    H     0.58169   0.83169   0.62500   0.00000  Uiso   1.00
O31    O     0.62426   0.71473   0.62506   0.00000  Uiso   1.00
O32    O     0.53527   0.62574   0.62494   0.00000  Uiso   1.00
C49    C     0.62500   0.45385   0.70385   0.00000  Uiso   1.00
C50    C     0.62501   0.43744   0.76672   0.00000  Uiso   1.00
C51    C     0.62499   0.48328   0.81256   0.00000  Uiso   1.00
C52    C     0.62500   0.54615   0.79615   0.00000  Uiso   1.00
C53    C     0.62501   0.56256   0.73328   0.00000  Uiso   1.00
C54    C     0.62499   0.51672   0.68744   0.00000  Uiso   1.00
H17    H     0.62500   0.41831   0.66831   0.00000  Uiso   1.00
O33    O     0.62506   0.37574   0.78527   0.00000  Uiso   1.00
O34    O     0.62494   0.46473   0.87426   0.00000  Uiso   1.00
H18    H     0.62500   0.58169   0.83169   0.00000  Uiso   1.00
O35    O     0.62506   0.62426   0.71473   0.00000  Uiso   1.00
O36    O     0.62494   0.53527   0.62574   0.00000  Uiso   1.00
C55    C     0.70385   0.37500   0.04615   0.00000  Uiso   1.00
C56    C     0.68744   0.37501   0.98328   0.00000  Uiso   1.00
C57    C     0.73328   0.37499   0.93744   0.00000  Uiso   1.00
C58    C     0.79615   0.37500   0.95385   0.00000  Uiso   1.00
C59    C     0.81256   0.37501   0.01672   0.00000  Uiso   1.00
C60    C     0.76672   0.37499   0.06256   0.00000  Uiso   1.00
H19    H     0.66831   0.37500   0.08169   0.00000  Uiso   1.00
O37    O     0.62574   0.37506   0.96473   0.00000  Uiso   1.00
O38    O     0.71473   0.37494   0.87574   0.00000  Uiso   1.00
H20    H     0.83169   0.37500   0.91831   0.00000  Uiso   1.00
O39    O     0.87426   0.37506   0.03527   0.00000  Uiso   1.00
O40    O     0.78527   0.37494   0.12426   0.00000  Uiso   1.00
C61    C     0.87500   0.45385   0.29615   0.00000  Uiso   1.00
C62    C     0.87501   0.51672   0.31256   0.00000  Uiso   1.00
C63    C     0.87499   0.56256   0.26672   0.00000  Uiso   1.00
C64    C     0.87500   0.54615   0.20385   0.00000  Uiso   1.00
C65    C     0.87501   0.48328   0.18744   0.00000  Uiso   1.00
C66    C     0.87499   0.43744   0.23328   0.00000  Uiso   1.00
H21    H     0.87500   0.41831   0.33169   0.00000  Uiso   1.00
O41    O     0.87506   0.53527   0.37426   0.00000  Uiso   1.00
O42    O     0.87494   0.62426   0.28527   0.00000  Uiso   1.00
H22    H     0.87500   0.58169   0.16831   0.00000  Uiso   1.00
O43    O     0.87506   0.46473   0.12574   0.00000  Uiso   1.00
O44    O     0.87494   0.37574   0.21473   0.00000  Uiso   1.00
C67    C     0.79615   0.62500   0.54615   0.00000  Uiso   1.00
C68    C     0.73328   0.62501   0.56256   0.00000  Uiso   1.00
C69    C     0.68744   0.62499   0.51672   0.00000  Uiso   1.00
C70    C     0.70385   0.62500   0.45385   0.00000  Uiso   1.00
C71    C     0.76672   0.62501   0.43744   0.00000  Uiso   1.00
C72    C     0.81256   0.62499   0.48328   0.00000  Uiso   1.00
H23    H     0.83169   0.62500   0.58169   0.00000  Uiso   1.00
O45    O     0.71473   0.62506   0.62426   0.00000  Uiso   1.00
O46    O     0.62574   0.62494   0.53527   0.00000  Uiso   1.00
H24    H     0.66831   0.62500   0.41831   0.00000  Uiso   1.00
O47    O     0.78527   0.62506   0.37574   0.00000  Uiso   1.00
O48    O     0.87426   0.62494   0.46473   0.00000  Uiso   1.00
loop_
_geom_bond_atom_site_label_1
_geom_bond_atom_site_label_2
_geom_bond_distance
_geom_bond_site_symmetry_2
_ccdc_geom_bond_type
Fe1    O1      1.932   .     S
Fe1    O2      1.932   .     S
Fe1    O15     1.932   .     S
Fe1    O16     1.932   .     S
Fe1    O17     1.932   .     S
Fe1    O18     1.932   .     S
Fe2    O3      1.932   .     S
Fe2    O4      1.932   .     S
Fe2    O7      1.932   .     S
Fe2    O8      1.932   .     S
Fe2    O27     1.932   .     S
Fe2    O28     1.932   .     S
Fe3    O5      1.932   .     S
Fe3    O6      1.932   .     S
Fe3    O11     1.932   .     S
Fe3    O12     1.932   .     S
Fe3    O29     1.932   .     S
Fe3    O30     1.932   .     S
Fe4    O9      1.932   .     S
Fe4    O10     1.932   .     S
Fe4    O13     1.932   .     S
Fe4    O14     1.932   .     S
Fe4    O23     1.932   .     S
Fe4    O24     1.932   .     S
Fe5    O21     1.932   .     S
Fe5    O22     1.932   .     S
Fe5    O33     1.932   .     S
Fe5    O34     1.932   .     S
Fe5    O37     1.932   .     S
Fe5    O38     1.932   .     S
Fe6    O19     1.932   .     S
Fe6    O20     1.932   .     S
Fe6    O39     1.932   .     S
Fe6    O40     1.932   .     S
Fe6    O43     1.932   .     S
Fe6    O44     1.932   .     S
Fe7    O25     1.932   .     S
Fe7    O26     1.932   .     S
Fe7    O41     1.932   .     S
Fe7    O42     1.932   .     S
Fe7    O47     1.932   .     S
Fe7    O48     1.932   .     S
Fe8    O31     1.932   .     S
Fe8    O32     1.932   .     S
Fe8    O35     1.932   .     S
Fe8    O36     1.932   .     S
Fe8    O45     1.932   .     S
Fe8    O46     1.932   .     S
C1     C2      1.399   .     A
C1     C6      1.399   1_545 A
C1     H1      1.083   .     S
C2     C3      1.396   .     A
C2     O1      1.388   .     S
C3     C4      1.399   1_545 A
C3     O2      1.388   .     S
C4     C3      1.399   1_565 A
C4     C5      1.399   .     A
C4     H2      1.083   .     S
C5     C6      1.396   .     A
C5     O3      1.388   .     S
C6     C1      1.399   1_565 A
C6     O4      1.388   .     S
C7     C8      1.399   .     A
C7     C12     1.399   .     A
C7     H3      1.083   .     S
C8     C9      1.396   .     A
C8     O5      1.388   .     S
C9     C10     1.399   .     A
C9     O6      1.388   .     S
C10    C11     1.399   .     A
C10    H4      1.083   .     S
C11    C12     1.396   .     A
C11    O7      1.388   .     S
C12    O8      1.388   .     S
C13    C14     1.399   1_565 A
C13    C18     1.399   .     A
C13    H5      1.083   .     S
C14    C13     1.399   1_545 A
C14    C15     1.396   .     A
C14    O9      1.388   .     S
C15    C16     1.399   .     A
C15    O10     1.388   .     S
C16    C17     1.399   1_545 A
C16    H6      1.083   .     S
C17    C16     1.399   1_565 A
C17    C18     1.396   .     A
C17    O11     1.388   .     S
C18    O12     1.388   .     S
C19    C20     1.399   .     A
C19    C24     1.399   1_556 A
C19    H7      1.083   .     S
C20    C21     1.396   .     A
C20    O13     1.388   .     S
C21    C22     1.399   1_556 A
C21    O14     1.388   .     S
C22    C21     1.399   1_554 A
C22    C23     1.399   .     A
C22    H8      1.083   .     S
C23    C24     1.396   .     A
C23    O15     1.388   .     S
C24    C19     1.399   1_554 A
C24    O16     1.388   .     S
C25    C26     1.399   1_655 A
C25    C30     1.399   .     A
C25    H9      1.083   .     S
C26    C25     1.399   1_455 A
C26    C27     1.396   .     A
C26    O17     1.388   .     S
C27    C28     1.399   .     A
C27    O18     1.388   .     S
C28    C29     1.399   1_455 A
C28    H10     1.083   .     S
C29    C28     1.399   1_655 A
C29    C30     1.396   .     A
C29    O19     1.388   .     S
C30    O20     1.388   .     S
C31    C32     1.399   .     A
C31    C36     1.399   .     A
C31    H11     1.083   .     S
C32    C33     1.396   .     A
C32    O21     1.388   .     S
C33    C34     1.399   .     A
C33    O22     1.388   .     S
C34    C35     1.399   .     A
C34    H12     1.083   .     S
C35    C36     1.396   .     A
C35    O23     1.388   .     S
C36    O24     1.388   .     S
C37    C38     1.399   .     A
C37    C42     1.399   1_655 A
C37    H13     1.083   .     S
C38    C39     1.396   .     A
C38    O25     1.388   .     S
C39    C40     1.399   1_655 A
C39    O26     1.388   .     S
C40    C39     1.399   1_455 A
C40    C41     1.399   .     A
C40    H14     1.083   .     S
C41    C42     1.396   .     A
C41    O27     1.388   .     S
C42    C37     1.399   1_455 A
C42    O28     1.388   .     S
C43    C44     1.399   .     A
C43    C48     1.399   .     A
C43    H15     1.083   .     S
C44    C45     1.396   .     A
C44    O29     1.388   .     S
C45    C46     1.399   .     A
C45    O30     1.388   .     S
C46    C47     1.399   .     A
C46    H16     1.083   .     S
C47    C48     1.396   .     A
C47    O31     1.388   .     S
C48    O32     1.388   .     S
C49    C50     1.399   .     A
C49    C54     1.399   .     A
C49    H17     1.083   .     S
C50    C51     1.396   .     A
C50    O33     1.388   .     S
C51    C52     1.399   .     A
C51    O34     1.388   .     S
C52    C53     1.399   .     A
C52    H18     1.083   .     S
C53    C54     1.396   .     A
C53    O35     1.388   .     S
C54    O36     1.388   .     S
C55    C56     1.399   1_554 A
C55    C60     1.399   .     A
C55    H19     1.083   .     S
C56    C55     1.399   1_556 A
C56    C57     1.396   .     A
C56    O37     1.388   .     S
C57    C58     1.399   .     A
C57    O38     1.388   .     S
C58    C59     1.399   1_556 A
C58    H20     1.083   .     S
C59    C58     1.399   1_554 A
C59    C60     1.396   .     A
C59    O39     1.388   .     S
C60    O40     1.388   .     S
C61    C62     1.399   .     A
C61    C66     1.399   .     A
C61    H21     1.083   .     S
C62    C63     1.396   .     A
C62    O41     1.388   .     S
C63    C64     1.399   .     A
C63    O42     1.388   .     S
C64    C65     1.399   .     A
C64    H22     1.083   .     S
C65    C66     1.396   .     A
C65    O43     1.388   .     S
C66    O44     1.388   .     S
C67    C68     1.399   .     A
C67    C72     1.399   .     A
C67    H23     1.083   .     S
C68    C69     1.396   .     A
C68    O45     1.388   .     S
C69    C70     1.399   .     A
C69    O46     1.388   .     S
C70    C71     1.399   .     A
C70    H24     1.083   .     S
C71    C72     1.396   .     A
C71    O47     1.388   .     S
C72    O48     1.388   .     S
