data_srs-TP_O-Feoct
_audit_creation_date              2021-11-06
_audit_creation_method            'Materials Studio'
_symmetry_space_group_name_H-M    'P1'
_symmetry_Int_Tables_number       1
_symmetry_cell_setting            triclinic
loop_
_symmetry_equiv_pos_as_xyz
  x,y,z
_cell_length_a                    17.7292
_cell_length_b                    17.7292
_cell_length_c                    17.7292
_cell_angle_alpha                 90.0000
_cell_angle_beta                  90.0000
_cell_angle_gamma                 90.0000
loop_
_atom_site_label
_atom_site_type_symbol
_atom_site_fract_x
_atom_site_fract_y
_atom_site_fract_z
_atom_site_U_iso_or_equiv
_atom_site_adp_type
_atom_site_occupancy
C1     C     0.09122   0.09132   0.18949   0.00000  Uiso   1.00
C2     C     0.15878   0.06051   0.15868   0.00000  Uiso   1.00
C3     C     0.18949   0.09122   0.09132   0.00000  Uiso   1.00
C4     C     0.15868   0.15878   0.06052   0.00000  Uiso   1.00
C5     C     0.09132   0.18949   0.09122   0.00000  Uiso   1.00
C6     C     0.06051   0.15868   0.15878   0.00000  Uiso   1.00
C7     C     0.19837   0.19518   1.00131   0.00000  Uiso   1.00
C8     C     0.26051   0.16085   0.96779   0.00000  Uiso   1.00
C9     C     0.28221   0.08915   0.98949   0.00000  Uiso   1.00
C10    C     0.24869   0.05482   0.05163   0.00000  Uiso   1.00
C11    C     0.05482   0.05163   0.24869   0.00000  Uiso   1.00
C12    C     0.08915   0.98949   0.28221   0.00000  Uiso   1.00
C13    C     0.16085   0.96779   0.26051   0.00000  Uiso   1.00
C14    C     0.19518   1.00131   0.19837   0.00000  Uiso   1.00
C15    C     1.00131   0.19837   0.19518   0.00000  Uiso   1.00
C16    C     0.96779   0.26051   0.16085   0.00000  Uiso   1.00
C17    C     0.98949   0.28221   0.08915   0.00000  Uiso   1.00
C18    C     0.05163   0.24869   0.05482   0.00000  Uiso   1.00
H1     H     0.18346   0.25072   0.98137   0.00000  Uiso   1.00
O1     O     0.30131   0.19652   0.91127   0.00000  Uiso   1.00
O2     O     0.33873   0.05348   0.94869   0.00000  Uiso   1.00
H2     H     0.26864  -0.00072   0.06654   0.00000  Uiso   1.00
H3     H    -0.00072   0.06654   0.26864   0.00000  Uiso   1.00
O3     O     0.05348   0.94869   0.33873   0.00000  Uiso   1.00
O4     O     0.19652   0.91127   0.30131   0.00000  Uiso   1.00
H4     H     0.25072   0.98136   0.18346   0.00000  Uiso   1.00
H5     H     0.98136   0.18346   0.25072   0.00000  Uiso   1.00
O5     O     0.91127   0.30131   0.19652   0.00000  Uiso   1.00
O6     O     0.94869   0.33873   0.05348   0.00000  Uiso   1.00
H6     H     0.06654   0.26864  -0.00072   0.00000  Uiso   1.00
Fe1    Fe    0.12500   0.87500   0.37500   0.00000  Uiso   1.00
C19    C     0.40878   0.90868   0.68949   0.00000  Uiso   1.00
C20    C     0.34122   0.93949   0.65868   0.00000  Uiso   1.00
C21    C     0.31051   0.90878   0.59132   0.00000  Uiso   1.00
C22    C     0.34132   0.84122   0.56051   0.00000  Uiso   1.00
C23    C     0.40868   0.81051   0.59122   0.00000  Uiso   1.00
C24    C     0.43949   0.84132   0.65878   0.00000  Uiso   1.00
C25    C     0.30163   0.80482   0.50131   0.00000  Uiso   1.00
C26    C     0.23949   0.83915   0.46779   0.00000  Uiso   1.00
C27    C     0.21779   0.91085   0.48949   0.00000  Uiso   1.00
C28    C     0.25131   0.94518   0.55163   0.00000  Uiso   1.00
C29    C     0.44518   0.94837   0.74869   0.00000  Uiso   1.00
C30    C     0.41085   0.01051   0.78221   0.00000  Uiso   1.00
C31    C     0.33915   0.03221   0.76051   0.00000  Uiso   1.00
C32    C     0.30482  -0.00131   0.69837   0.00000  Uiso   1.00
C33    C     0.49869   0.80163   0.69518   0.00000  Uiso   1.00
C34    C     0.53221   0.73949   0.66085   0.00000  Uiso   1.00
C35    C     0.51051   0.71779   0.58915   0.00000  Uiso   1.00
C36    C     0.44837   0.75131   0.55482   0.00000  Uiso   1.00
H7     H     0.31654   0.74928   0.48137   0.00000  Uiso   1.00
O7     O     0.19869   0.80348   0.41127   0.00000  Uiso   1.00
O8     O     0.16127   0.94652   0.44869   0.00000  Uiso   1.00
H8     H     0.23136   1.00072   0.56654   0.00000  Uiso   1.00
H9     H     0.50072   0.93346   0.76864   0.00000  Uiso   1.00
O9     O     0.44652   0.05131   0.83873   0.00000  Uiso   1.00
O10    O     0.30348   0.08873   0.80131   0.00000  Uiso   1.00
H10    H     0.24928   0.01864   0.68346   0.00000  Uiso   1.00
H11    H     0.51864   0.81654   0.75072   0.00000  Uiso   1.00
O11    O     0.58873   0.69869   0.69652   0.00000  Uiso   1.00
O12    O     0.55131   0.66127   0.55348   0.00000  Uiso   1.00
H12    H     0.43346   0.73136   0.49928   0.00000  Uiso   1.00
Fe2    Fe    0.37500   0.12500   0.87500   0.00000  Uiso   1.00
C37    C     0.56051   0.34132   0.84122   0.00000  Uiso   1.00
C38    C     0.59132   0.31051   0.90878   0.00000  Uiso   1.00
C39    C     0.65868   0.34122   0.93949   0.00000  Uiso   1.00
C40    C     0.68949   0.40878   0.90868   0.00000  Uiso   1.00
C41    C     0.65878   0.43949   0.84132   0.00000  Uiso   1.00
C42    C     0.59122   0.40868   0.81051   0.00000  Uiso   1.00
C43    C     0.74869   0.44518   0.94837   0.00000  Uiso   1.00
C44    C     0.78221   0.41085   0.01051   0.00000  Uiso   1.00
C45    C     0.76051   0.33915   0.03221   0.00000  Uiso   1.00
C46    C     0.69837   0.30482  -0.00131   0.00000  Uiso   1.00
C47    C     0.50131   0.30163   0.80482   0.00000  Uiso   1.00
C48    C     0.46779   0.23949   0.83915   0.00000  Uiso   1.00
C49    C     0.48949   0.21779   0.91085   0.00000  Uiso   1.00
C50    C     0.55163   0.25131   0.94518   0.00000  Uiso   1.00
C51    C     0.55482   0.44837   0.75131   0.00000  Uiso   1.00
C52    C     0.58915   0.51051   0.71779   0.00000  Uiso   1.00
C53    C     0.66085   0.53221   0.73949   0.00000  Uiso   1.00
C54    C     0.69518   0.49869   0.80163   0.00000  Uiso   1.00
H13    H     0.76864   0.50072   0.93346   0.00000  Uiso   1.00
O13    O     0.83873   0.44652   0.05131   0.00000  Uiso   1.00
O14    O     0.80131   0.30348   0.08873   0.00000  Uiso   1.00
H14    H     0.68346   0.24928   0.01864   0.00000  Uiso   1.00
H15    H     0.48136   0.31654   0.74928   0.00000  Uiso   1.00
O15    O     0.41127   0.19869   0.80348   0.00000  Uiso   1.00
O16    O     0.44869   0.16127   0.94652   0.00000  Uiso   1.00
H16    H     0.56654   0.23136   1.00072   0.00000  Uiso   1.00
H17    H     0.49928   0.43346   0.73136   0.00000  Uiso   1.00
O17    O     0.55348   0.55131   0.66127   0.00000  Uiso   1.00
O18    O     0.69652   0.58873   0.69869   0.00000  Uiso   1.00
H18    H     0.75072   0.51864   0.81654   0.00000  Uiso   1.00
Fe3    Fe    0.87500   0.37500   0.12500   0.00000  Uiso   1.00
C55    C     0.93949   0.65868   0.34122   0.00000  Uiso   1.00
C56    C     0.90868   0.68949   0.40878   0.00000  Uiso   1.00
C57    C     0.84132   0.65878   0.43949   0.00000  Uiso   1.00
C58    C     0.81051   0.59122   0.40868   0.00000  Uiso   1.00
C59    C     0.84122   0.56051   0.34132   0.00000  Uiso   1.00
C60    C     0.90878   0.59132   0.31051   0.00000  Uiso   1.00
C61    C     0.75131   0.55482   0.44837   0.00000  Uiso   1.00
C62    C     0.71779   0.58915   0.51051   0.00000  Uiso   1.00
C63    C     0.73949   0.66085   0.53221   0.00000  Uiso   1.00
C64    C     0.80163   0.69518   0.49869   0.00000  Uiso   1.00
C65    C    -0.00131   0.69837   0.30482   0.00000  Uiso   1.00
C66    C     0.03221   0.76051   0.33915   0.00000  Uiso   1.00
C67    C     0.01051   0.78221   0.41085   0.00000  Uiso   1.00
C68    C     0.94837   0.74869   0.44518   0.00000  Uiso   1.00
C69    C     0.94518   0.55163   0.25131   0.00000  Uiso   1.00
C70    C     0.91085   0.48949   0.21779   0.00000  Uiso   1.00
C71    C     0.83915   0.46779   0.23949   0.00000  Uiso   1.00
C72    C     0.80482   0.50131   0.30163   0.00000  Uiso   1.00
H19    H     0.73136   0.49928   0.43346   0.00000  Uiso   1.00
O19    O     0.66127   0.55348   0.55131   0.00000  Uiso   1.00
O20    O     0.69869   0.69652   0.58873   0.00000  Uiso   1.00
H20    H     0.81654   0.75072   0.51864   0.00000  Uiso   1.00
H21    H     0.01864   0.68346   0.24928   0.00000  Uiso   1.00
O21    O     0.08873   0.80131   0.30348   0.00000  Uiso   1.00
O22    O     0.05131   0.83873   0.44652   0.00000  Uiso   1.00
H22    H     0.93346   0.76864   0.50072   0.00000  Uiso   1.00
H23    H     1.00072   0.56654   0.23137   0.00000  Uiso   1.00
O23    O     0.94652   0.44869   0.16127   0.00000  Uiso   1.00
O24    O     0.80348   0.41127   0.19869   0.00000  Uiso   1.00
H24    H     0.74928   0.48136   0.31654   0.00000  Uiso   1.00
Fe4    Fe    0.62500   0.62500   0.62500   0.00000  Uiso   1.00
loop_
_geom_bond_atom_site_label_1
_geom_bond_atom_site_label_2
_geom_bond_distance
_geom_bond_site_symmetry_2
_ccdc_geom_bond_type
C1     C2      1.425   .     A
C1     C6      1.421   .     A
C1     C11     1.419   .     A
C2     C3      1.421   .     A
C2     C14     1.419   1_545 A
C3     C4      1.425   .     A
C3     C10     1.419   .     A
C4     C5      1.421   .     A
C4     C7      1.419   1_554 A
C5     C6      1.425   .     A
C5     C18     1.419   .     A
C6     C15     1.419   1_455 A
C7     C4      1.419   1_556 A
C7     C8      1.392   .     A
C7     H1      1.079   .     S
C8     C9      1.383   .     A
C8     O1      1.388   .     S
C9     C10     1.392   1_556 A
C9     O2      1.388   .     S
C10    C9      1.392   1_554 A
C10    H2      1.079   .     S
C11    C12     1.392   1_545 A
C11    H3      1.079   .     S
C12    C11     1.392   1_565 A
C12    C13     1.383   .     A
C12    O3      1.388   .     S
C13    C14     1.392   .     A
C13    O4      1.388   .     S
C14    C2      1.419   1_565 A
C14    H4      1.079   .     S
C15    C6      1.419   1_655 A
C15    C16     1.392   .     A
C15    H5      1.079   .     S
C16    C17     1.383   .     A
C16    O5      1.388   .     S
C17    C18     1.392   1_655 A
C17    O6      1.388   .     S
C18    C17     1.392   1_455 A
C18    H6      1.079   .     S
O1     Fe2     1.931   .     S
O2     Fe2     1.931   .     S
O3     Fe1     1.931   .     S
O4     Fe1     1.931   .     S
O5     Fe3     1.931   .     S
O6     Fe3     1.931   .     S
Fe1    O7      1.931   .     S
Fe1    O8      1.931   .     S
Fe1    O21     1.931   .     S
Fe1    O22     1.931   .     S
C19    C20     1.425   .     A
C19    C24     1.421   .     A
C19    C29     1.419   .     A
C20    C21     1.421   .     A
C20    C32     1.419   1_565 A
C21    C22     1.425   .     A
C21    C28     1.419   .     A
C22    C23     1.421   .     A
C22    C25     1.419   .     A
C23    C24     1.425   .     A
C23    C36     1.419   .     A
C24    C33     1.419   .     A
C25    C26     1.392   .     A
C25    H7      1.079   .     S
C26    C27     1.383   .     A
C26    O7      1.388   .     S
C27    C28     1.392   .     A
C27    O8      1.388   .     S
C28    H8      1.079   .     S
C29    C30     1.392   1_565 A
C29    H9      1.079   .     S
C30    C29     1.392   1_545 A
C30    C31     1.383   .     A
C30    O9      1.388   .     S
C31    C32     1.392   .     A
C31    O10     1.388   .     S
C32    C20     1.419   1_545 A
C32    H10     1.079   .     S
C33    C34     1.392   .     A
C33    H11     1.079   .     S
C34    C35     1.383   .     A
C34    O11     1.388   .     S
C35    C36     1.392   .     A
C35    O12     1.388   .     S
C36    H12     1.079   .     S
O9     Fe2     1.931   .     S
O10    Fe2     1.931   .     S
O11    Fe4     1.931   .     S
O12    Fe4     1.931   .     S
Fe2    O15     1.931   .     S
Fe2    O16     1.931   .     S
C37    C38     1.425   .     A
C37    C42     1.421   .     A
C37    C47     1.419   .     A
C38    C39     1.421   .     A
C38    C50     1.419   .     A
C39    C40     1.425   .     A
C39    C46     1.419   1_556 A
C40    C41     1.421   .     A
C40    C43     1.419   .     A
C41    C42     1.425   .     A
C41    C54     1.419   .     A
C42    C51     1.419   .     A
C43    C44     1.392   1_556 A
C43    H13     1.079   .     S
C44    C43     1.392   1_554 A
C44    C45     1.383   .     A
C44    O13     1.388   .     S
C45    C46     1.392   .     A
C45    O14     1.388   .     S
C46    C39     1.419   1_554 A
C46    H14     1.079   .     S
C47    C48     1.392   .     A
C47    H15     1.079   .     S
C48    C49     1.383   .     A
C48    O15     1.388   .     S
C49    C50     1.392   .     A
C49    O16     1.388   .     S
C50    H16     1.079   .     S
C51    C52     1.392   .     A
C51    H17     1.079   .     S
C52    C53     1.383   .     A
C52    O17     1.388   .     S
C53    C54     1.392   .     A
C53    O18     1.388   .     S
C54    H18     1.079   .     S
O13    Fe3     1.931   .     S
O14    Fe3     1.931   .     S
O17    Fe4     1.931   .     S
O18    Fe4     1.931   .     S
Fe3    O23     1.931   .     S
Fe3    O24     1.931   .     S
C55    C56     1.425   .     A
C55    C60     1.421   .     A
C55    C65     1.419   1_655 A
C56    C57     1.421   .     A
C56    C68     1.419   .     A
C57    C58     1.425   .     A
C57    C64     1.419   .     A
C58    C59     1.421   .     A
C58    C61     1.419   .     A
C59    C60     1.425   .     A
C59    C72     1.419   .     A
C60    C69     1.419   .     A
C61    C62     1.392   .     A
C61    H19     1.079   .     S
C62    C63     1.383   .     A
C62    O19     1.388   .     S
C63    C64     1.392   .     A
C63    O20     1.388   .     S
C64    H20     1.079   .     S
C65    C55     1.419   1_455 A
C65    C66     1.392   .     A
C65    H21     1.079   .     S
C66    C67     1.383   .     A
C66    O21     1.388   .     S
C67    C68     1.392   1_455 A
C67    O22     1.388   .     S
C68    C67     1.392   1_655 A
C68    H22     1.079   .     S
C69    C70     1.392   .     A
C69    H23     1.079   .     S
C70    C71     1.383   .     A
C70    O23     1.388   .     S
C71    C72     1.392   .     A
C71    O24     1.388   .     S
C72    H24     1.079   .     S
O19    Fe4     1.931   .     S
O20    Fe4     1.931   .     S
