data_srs-B_O-Feoct
_audit_creation_date              2021-11-06
_audit_creation_method            'Materials Studio'
_symmetry_space_group_name_H-M    'P1'
_symmetry_Int_Tables_number       1
_symmetry_cell_setting            triclinic
loop_
_symmetry_equiv_pos_as_xyz
  x,y,z
_cell_length_a                    10.4499
_cell_length_b                    10.4498
_cell_length_c                    10.4498
_cell_angle_alpha                 90.0000
_cell_angle_beta                  90.0000
_cell_angle_gamma                 90.0000
loop_
_atom_site_label
_atom_site_type_symbol
_atom_site_fract_x
_atom_site_fract_y
_atom_site_fract_z
_atom_site_U_iso_or_equiv
_atom_site_adp_type
_atom_site_occupancy
C1     C     0.15573  -0.02115   0.12419   0.00000  Uiso   1.00
C2     C     0.18935   0.04440   0.01227   0.00000  Uiso   1.00
C3     C     0.12419   0.15573  -0.02115   0.00000  Uiso   1.00
C4     C     0.01227   0.18935   0.04440   0.00000  Uiso   1.00
C5     C    -0.02115   0.12419   0.15573   0.00000  Uiso   1.00
C6     C     0.04440   0.01227   0.18935   0.00000  Uiso   1.00
O1     O     0.23958   0.89534   0.18496   0.00000  Uiso   1.00
O2     O     0.29023   0.00635  -0.06501   0.00000  Uiso   1.00
O3     O     0.18496   0.23958   0.89534   0.00000  Uiso   1.00
O4     O    -0.06501   0.29023   0.00634   0.00000  Uiso   1.00
O5     O     0.89534   0.18496   0.23958   0.00000  Uiso   1.00
O6     O     0.00635  -0.06501   0.29023   0.00000  Uiso   1.00
Fe1    Fe    0.15722   0.84278   0.34278   0.00000  Uiso   1.00
C7     C     0.34427   1.02115   0.62419   0.00000  Uiso   1.00
C8     C     0.31065   0.95560   0.51227   0.00000  Uiso   1.00
C9     C     0.37581   0.84427   0.47885   0.00000  Uiso   1.00
C10    C     0.48773   0.81065   0.54440   0.00000  Uiso   1.00
C11    C     0.52115   0.87581   0.65573   0.00000  Uiso   1.00
C12    C     0.45560   0.98773   0.68935   0.00000  Uiso   1.00
O7     O     0.26042   0.10466   0.68496   0.00000  Uiso   1.00
O8     O     0.20977   0.99365   0.43499   0.00000  Uiso   1.00
O9     O     0.31504   0.76042   0.39534   0.00000  Uiso   1.00
O10    O     0.56501   0.70977   0.50634   0.00000  Uiso   1.00
O11    O     0.60466   0.81504   0.73958   0.00000  Uiso   1.00
O12    O     0.49365   1.06501   0.79023   0.00000  Uiso   1.00
Fe2    Fe    0.34278   0.15722   0.84278   0.00000  Uiso   1.00
C13    C     0.51227   0.31065   0.95560   0.00000  Uiso   1.00
C14    C     0.62419   0.34427   1.02115   0.00000  Uiso   1.00
C15    C     0.68935   0.45560   0.98773   0.00000  Uiso   1.00
C16    C     0.65573   0.52115   0.87581   0.00000  Uiso   1.00
C17    C     0.54440   0.48773   0.81065   0.00000  Uiso   1.00
C18    C     0.47885   0.37581   0.84427   0.00000  Uiso   1.00
O13    O     0.43499   0.20977   0.99365   0.00000  Uiso   1.00
O14    O     0.68496   0.26042   0.10466   0.00000  Uiso   1.00
O15    O     0.79023   0.49365   1.06501   0.00000  Uiso   1.00
O16    O     0.73958   0.60466   0.81504   0.00000  Uiso   1.00
O17    O     0.50635   0.56501   0.70977   0.00000  Uiso   1.00
O18    O     0.39534   0.31504   0.76042   0.00000  Uiso   1.00
Fe3    Fe    0.84278   0.34278   0.15722   0.00000  Uiso   1.00
C19    C     0.98773   0.68935   0.45560   0.00000  Uiso   1.00
C20    C     0.87581   0.65573   0.52115   0.00000  Uiso   1.00
C21    C     0.81065   0.54440   0.48773   0.00000  Uiso   1.00
C22    C     0.84427   0.47885   0.37581   0.00000  Uiso   1.00
C23    C     0.95560   0.51227   0.31065   0.00000  Uiso   1.00
C24    C     1.02115   0.62419   0.34427   0.00000  Uiso   1.00
O19    O     1.06501   0.79023   0.49365   0.00000  Uiso   1.00
O20    O     0.81504   0.73958   0.60466   0.00000  Uiso   1.00
O21    O     0.70977   0.50635   0.56501   0.00000  Uiso   1.00
O22    O     0.76042   0.39534   0.31504   0.00000  Uiso   1.00
O23    O     0.99365   0.43499   0.20977   0.00000  Uiso   1.00
O24    O     0.10466   0.68496   0.26042   0.00000  Uiso   1.00
Fe4    Fe    0.65722   0.65722   0.65722   0.00000  Uiso   1.00
loop_
_geom_bond_atom_site_label_1
_geom_bond_atom_site_label_2
_geom_bond_distance
_geom_bond_site_symmetry_2
_ccdc_geom_bond_type
C1     C2      1.400   .     A
C1     C6      1.393   .     A
C1     O1      1.390   1_545 S
C2     C3      1.393   .     A
C2     O2      1.386   .     S
C3     C4      1.400   .     A
C3     O3      1.390   1_554 S
C4     C5      1.393   .     A
C4     O4      1.386   .     S
C5     C6      1.400   .     A
C5     O5      1.390   1_455 S
C6     O6      1.386   .     S
O1     C1      1.390   1_565 S
O1     Fe1     1.940   .     S
O2     Fe2     1.928   1_554 S
O3     C3      1.390   1_556 S
O3     Fe2     1.940   .     S
O4     Fe3     1.928   1_455 S
O5     C5      1.390   1_655 S
O5     Fe3     1.940   .     S
O6     Fe1     1.928   1_545 S
Fe1    O6      1.928   1_565 S
Fe1    O8      1.928   .     S
Fe1    O9      1.940   .     S
Fe1    O19     1.928   1_455 S
Fe1    O24     1.940   .     S
C7     C8      1.400   .     A
C7     C12     1.393   .     A
C7     O7      1.390   1_565 S
C8     C9      1.393   .     A
C8     O8      1.386   .     S
C9     C10     1.400   .     A
C9     O9      1.390   .     S
C10    C11     1.393   .     A
C10    O10     1.386   .     S
C11    C12     1.400   .     A
C11    O11     1.390   .     S
C12    O12     1.386   .     S
O7     C7      1.390   1_545 S
O7     Fe2     1.940   .     S
O10    Fe4     1.928   .     S
O11    Fe4     1.940   .     S
O12    Fe2     1.928   1_565 S
Fe2    O2      1.928   1_556 S
Fe2    O12     1.928   1_545 S
Fe2    O13     1.928   .     S
Fe2    O18     1.940   .     S
C13    C14     1.400   .     A
C13    C18     1.393   .     A
C13    O13     1.386   .     S
C14    C15     1.393   .     A
C14    O14     1.390   1_556 S
C15    C16     1.400   .     A
C15    O15     1.386   .     S
C16    C17     1.393   .     A
C16    O16     1.390   .     S
C17    C18     1.400   .     A
C17    O17     1.386   .     S
C18    O18     1.390   .     S
O14    C14     1.390   1_554 S
O14    Fe3     1.940   .     S
O15    Fe3     1.928   1_556 S
O16    Fe4     1.940   .     S
O17    Fe4     1.928   .     S
Fe3    O4      1.928   1_655 S
Fe3    O15     1.928   1_554 S
Fe3    O22     1.940   .     S
Fe3    O23     1.928   .     S
C19    C20     1.400   .     A
C19    C24     1.393   .     A
C19    O19     1.386   .     S
C20    C21     1.393   .     A
C20    O20     1.390   .     S
C21    C22     1.400   .     A
C21    O21     1.386   .     S
C22    C23     1.393   .     A
C22    O22     1.390   .     S
C23    C24     1.400   .     A
C23    O23     1.386   .     S
C24    O24     1.390   1_655 S
O19    Fe1     1.928   1_655 S
O20    Fe4     1.940   .     S
O21    Fe4     1.928   .     S
O24    C24     1.390   1_455 S
