data_srs-spacer-B_O-Feoct
_audit_creation_date              2021-11-06
_audit_creation_method            'Materials Studio'
_symmetry_space_group_name_H-M    'P4332'
_symmetry_Int_Tables_number       212
_symmetry_cell_setting            cubic
loop_
_symmetry_equiv_pos_as_xyz
  x,y,z
  -x+1/2,-y,z+1/2
  -x,y+1/2,-z+1/2
  x+1/2,-y+1/2,-z
  z,x,y
  z+1/2,-x+1/2,-y
  -z+1/2,-x,y+1/2
  -z,x+1/2,-y+1/2
  y,z,x
  -y,z+1/2,-x+1/2
  y+1/2,-z+1/2,-x
  -y+1/2,-z,x+1/2
  y+1/4,x+3/4,-z+3/4
  -y+1/4,-x+1/4,-z+1/4
  y+3/4,-x+3/4,z+1/4
  -y+3/4,x+1/4,z+3/4
  x+1/4,z+3/4,-y+3/4
  -x+3/4,z+1/4,y+3/4
  -x+1/4,-z+1/4,-y+1/4
  x+3/4,-z+3/4,y+1/4
  z+1/4,y+3/4,-x+3/4
  z+3/4,-y+3/4,x+1/4
  -z+3/4,y+1/4,x+3/4
  -z+1/4,-y+1/4,-x+1/4
_cell_length_a                    31.7481
_cell_length_b                    31.7481
_cell_length_c                    31.7481
_cell_angle_alpha                 90.0000
_cell_angle_beta                  90.0000
_cell_angle_gamma                 90.0000
loop_
_atom_site_label
_atom_site_type_symbol
_atom_site_fract_x
_atom_site_fract_y
_atom_site_fract_z
_atom_site_U_iso_or_equiv
_atom_site_adp_type
_atom_site_occupancy
C1     C     0.14288   0.08942   0.14318   0.00000  Uiso   1.00
O1     O     0.15959   0.05508   0.16396   0.00000  Uiso   1.00
C25    C     0.14531   0.92688   0.31111   0.00000  Uiso   1.00
C27    C     0.08491   0.97312   0.30352   0.00000  Uiso   1.00
C28    C     0.10579   0.99363   0.27057   0.00000  Uiso   1.00
O25    O     0.16507   0.89522   0.33385   0.00000  Uiso   1.00
H1     H     0.05404   0.98349   0.31362   0.00000  Uiso   1.00
O27    O     0.08961   0.02855   0.25030   0.00000  Uiso   1.00
Fe1    Fe    0.12500   0.87500   0.37500   0.00000  Uiso   1.00
Fe5    Cu    0.12500   0.04234   0.20766   0.00000  Uiso   1.00
loop_
_geom_bond_atom_site_label_1
_geom_bond_atom_site_label_2
_geom_bond_distance
_geom_bond_site_symmetry_2
_ccdc_geom_bond_type
C1     O1      1.380   .     S
C1     C1      1.401   14    A
C1     C1      1.378   19    A
O1     Fe5     1.815   .     S
C25    O25     1.387   .     S
C25    C25     1.398   19_566 A
C25    C27     1.401   19_566 A
C27    C28     1.399   .     A
C27    H1      1.082   .     S
C27    C25     1.401   19_566 A
C28    O27     1.381   1_565 S
C28    C28     1.376   19_566 A
O25    Fe1     1.933   .     S
O27    C28     1.381   1_545 S
O27    Fe5     1.813   .     S
Fe1    O25     1.933   7_564 S
Fe1    O25     1.933   10_655 S
Fe1    O25     1.933   13_455 S
Fe1    O25     1.933   19_566 S
Fe1    O25     1.933   22_465 S
Fe5    O27     1.813   19    S
Fe5    O1      1.815   19    S
