data_srs-TN_O-Feoct
_audit_creation_date              2021-11-06
_audit_creation_method            'Materials Studio'
_symmetry_space_group_name_H-M    'P1'
_symmetry_Int_Tables_number       1
_symmetry_cell_setting            triclinic
loop_
_symmetry_equiv_pos_as_xyz
  x,y,z
_cell_length_a                    24.6350
_cell_length_b                    24.6350
_cell_length_c                    24.6336
_cell_angle_alpha                 90.0000
_cell_angle_beta                  90.0000
_cell_angle_gamma                 89.9999
loop_
_atom_site_label
_atom_site_type_symbol
_atom_site_fract_x
_atom_site_fract_y
_atom_site_fract_z
_atom_site_U_iso_or_equiv
_atom_site_adp_type
_atom_site_occupancy
C1     C     0.10077   0.10076   0.17148   0.00000  Uiso   1.00
C2     C     0.14925   0.07855   0.14927   0.00000  Uiso   1.00
C3     C     0.17148   0.10077   0.10077   0.00000  Uiso   1.00
C4     C     0.14927   0.14925   0.07855   0.00000  Uiso   1.00
C5     C     0.10077   0.17147   0.10077   0.00000  Uiso   1.00
C6     C     0.07855   0.14926   0.14925   0.00000  Uiso   1.00
C7     C     0.17757   0.17529   0.03569   0.00000  Uiso   1.00
C8     C     0.22235   0.15096   0.01078   0.00000  Uiso   1.00
C9     C     0.23926   0.09905   0.02769   0.00000  Uiso   1.00
C10    C     0.21435   0.07473   0.07248   0.00000  Uiso   1.00
C11    C     0.07473   0.07247   0.21434   0.00000  Uiso   1.00
C12    C     0.09905   0.02768   0.23925   0.00000  Uiso   1.00
C13    C     0.15096   0.01077   0.22235   0.00000  Uiso   1.00
C14    C     0.17529   0.03568   0.17757   0.00000  Uiso   1.00
C15    C     0.03569   0.17756   0.17529   0.00000  Uiso   1.00
C16    C     0.01078   0.22234   0.15096   0.00000  Uiso   1.00
C17    C     0.02770   0.23925   0.09905   0.00000  Uiso   1.00
C18    C     0.07248   0.21434   0.07473   0.00000  Uiso   1.00
C19    C    -0.00013   0.28148   0.07255   0.00000  Uiso   1.00
C20    C     0.95689   0.30764   0.09868   0.00000  Uiso   1.00
C21    C     0.94239   0.29315   0.15132   0.00000  Uiso   1.00
C22    C     0.96854   0.25017   0.17745   0.00000  Uiso   1.00
C23    C     0.28150   0.07255  -0.00014   0.00000  Uiso   1.00
C24    C     0.30766   0.09868   0.95688   0.00000  Uiso   1.00
C25    C     0.29317   0.15133   0.94239   0.00000  Uiso   1.00
C26    C     0.25019   0.17746   0.96854   0.00000  Uiso   1.00
H1     H     0.16641   0.21530   0.02178   0.00000  Uiso   1.00
H2     H     0.22825   0.03471   0.08365   0.00000  Uiso   1.00
H3     H     0.03471   0.08364   0.22825   0.00000  Uiso   1.00
H4     H     0.21531   0.02177   0.16640   0.00000  Uiso   1.00
H5     H     0.02178   0.16639   0.21531   0.00000  Uiso   1.00
H6     H     0.08365   0.22825   0.03471   0.00000  Uiso   1.00
H7     H     0.01154   0.29428   0.03211   0.00000  Uiso   1.00
O1     O     0.92784   0.34872   0.07333   0.00000  Uiso   1.00
O2     O     0.90131   0.32220   0.17666   0.00000  Uiso   1.00
H8     H     0.95575   0.23850   0.21789   0.00000  Uiso   1.00
H9     H     0.29429   0.03212   0.01154   0.00000  Uiso   1.00
O3     O     0.34874   0.07334   0.92783   0.00000  Uiso   1.00
O4     O     0.32222   0.17666   0.90131   0.00000  Uiso   1.00
H10    H     0.23852   0.21789   0.95575   0.00000  Uiso   1.00
C27    C     0.17745   0.96853   0.25018   0.00000  Uiso   1.00
C28    C     0.15131   0.94237   0.29316   0.00000  Uiso   1.00
C29    C     0.09867   0.95687   0.30765   0.00000  Uiso   1.00
C30    C     0.07255  -0.00015   0.28149   0.00000  Uiso   1.00
H11    H     0.21788   0.95573   0.23851   0.00000  Uiso   1.00
O5     O     0.17665   0.90129   0.32221   0.00000  Uiso   1.00
O6     O     0.07332   0.92782   0.34872   0.00000  Uiso   1.00
H12    H     0.03211   0.01152   0.29428   0.00000  Uiso   1.00
Fe1    Fe    0.12498   0.87500   0.37502   0.00000  Uiso   1.00
C31    C     0.39923   0.89924   0.67148   0.00000  Uiso   1.00
C32    C     0.35075   0.92146   0.64927   0.00000  Uiso   1.00
C33    C     0.32852   0.89923   0.60077   0.00000  Uiso   1.00
C34    C     0.35073   0.85075   0.57855   0.00000  Uiso   1.00
C35    C     0.39923   0.82853   0.60077   0.00000  Uiso   1.00
C36    C     0.42145   0.85074   0.64925   0.00000  Uiso   1.00
C37    C     0.32243   0.82471   0.53569   0.00000  Uiso   1.00
C38    C     0.27765   0.84904   0.51078   0.00000  Uiso   1.00
C39    C     0.26074   0.90095   0.52769   0.00000  Uiso   1.00
C40    C     0.28565   0.92527   0.57248   0.00000  Uiso   1.00
C41    C     0.42527   0.92753   0.71434   0.00000  Uiso   1.00
C42    C     0.40095   0.97232   0.73925   0.00000  Uiso   1.00
C43    C     0.34904   0.98923   0.72235   0.00000  Uiso   1.00
C44    C     0.32471   0.96432   0.67756   0.00000  Uiso   1.00
C45    C     0.46431   0.82244   0.67529   0.00000  Uiso   1.00
C46    C     0.48922   0.77766   0.65096   0.00000  Uiso   1.00
C47    C     0.47230   0.76075   0.59905   0.00000  Uiso   1.00
C48    C     0.42752   0.78566   0.57473   0.00000  Uiso   1.00
C49    C     0.50013   0.71852   0.57255   0.00000  Uiso   1.00
C50    C     0.54311   0.69236   0.59868   0.00000  Uiso   1.00
C51    C     0.55761   0.70685   0.65132   0.00000  Uiso   1.00
C52    C     0.53145   0.74983   0.67746   0.00000  Uiso   1.00
C53    C     0.21850   0.92745   0.49986   0.00000  Uiso   1.00
C54    C     0.19234   0.90132   0.45688   0.00000  Uiso   1.00
C55    C     0.20683   0.84867   0.44239   0.00000  Uiso   1.00
C56    C     0.24981   0.82254   0.46854   0.00000  Uiso   1.00
H13    H     0.33359   0.78470   0.52178   0.00000  Uiso   1.00
H14    H     0.27175   0.96529   0.58365   0.00000  Uiso   1.00
H15    H     0.46529   0.91636   0.72825   0.00000  Uiso   1.00
H16    H     0.28470   0.97823   0.66640   0.00000  Uiso   1.00
H17    H     0.47822   0.83361   0.71531   0.00000  Uiso   1.00
H18    H     0.41635   0.77176   0.53471   0.00000  Uiso   1.00
H19    H     0.48846   0.70572   0.53211   0.00000  Uiso   1.00
O7     O     0.57216   0.65128   0.57333   0.00000  Uiso   1.00
O8     O     0.59869   0.67780   0.67666   0.00000  Uiso   1.00
H20    H     0.54425   0.76150   0.71789   0.00000  Uiso   1.00
H21    H     0.20571   0.96788   0.51153   0.00000  Uiso   1.00
O9     O     0.15126   0.92666   0.42783   0.00000  Uiso   1.00
O10    O     0.17778   0.82334   0.40131   0.00000  Uiso   1.00
H22    H     0.26148   0.78211   0.45575   0.00000  Uiso   1.00
C57    C     0.32255   0.03147   0.75018   0.00000  Uiso   1.00
C58    C     0.34869   0.05763   0.79316   0.00000  Uiso   1.00
C59    C     0.40133   0.04313   0.80765   0.00000  Uiso   1.00
C60    C     0.42745   1.00015   0.78149   0.00000  Uiso   1.00
H23    H     0.28212   0.04427   0.73851   0.00000  Uiso   1.00
O11    O     0.32335   0.09871   0.82221   0.00000  Uiso   1.00
O12    O     0.42668   0.07218   0.84872   0.00000  Uiso   1.00
H24    H     0.46789   0.98847   0.79428   0.00000  Uiso   1.00
Fe2    Fe    0.37502   0.12500   0.87502   0.00000  Uiso   1.00
C61    C     0.57855   0.35074   0.85075   0.00000  Uiso   1.00
C62    C     0.60077   0.32853   0.89923   0.00000  Uiso   1.00
C63    C     0.64927   0.35075   0.92145   0.00000  Uiso   1.00
C64    C     0.67148   0.39923   0.89923   0.00000  Uiso   1.00
C65    C     0.64925   0.42145   0.85074   0.00000  Uiso   1.00
C66    C     0.60077   0.39924   0.82852   0.00000  Uiso   1.00
C67    C     0.71435   0.42527   0.92753   0.00000  Uiso   1.00
C68    C     0.73926   0.40094   0.97231   0.00000  Uiso   1.00
C69    C     0.72236   0.34904   0.98922   0.00000  Uiso   1.00
C70    C     0.67757   0.32471   0.96432   0.00000  Uiso   1.00
C71    C     0.53569   0.32245   0.82471   0.00000  Uiso   1.00
C72    C     0.51078   0.27766   0.84904   0.00000  Uiso   1.00
C73    C     0.52770   0.26075   0.90095   0.00000  Uiso   1.00
C74    C     0.57248   0.28566   0.92528   0.00000  Uiso   1.00
C75    C     0.57473   0.42753   0.78566   0.00000  Uiso   1.00
C76    C     0.59905   0.47232   0.76075   0.00000  Uiso   1.00
C77    C     0.65095   0.48923   0.77766   0.00000  Uiso   1.00
C78    C     0.67529   0.46432   0.82244   0.00000  Uiso   1.00
C79    C     0.67745   0.53147   0.74983   0.00000  Uiso   1.00
C80    C     0.65131   0.55763   0.70685   0.00000  Uiso   1.00
C81    C     0.59867   0.54313   0.69236   0.00000  Uiso   1.00
C82    C     0.57255   0.50015   0.71852   0.00000  Uiso   1.00
C83    C     0.75019   0.32254   0.03146   0.00000  Uiso   1.00
C84    C     0.79317   0.34867   0.05762   0.00000  Uiso   1.00
C85    C     0.80766   0.40132   0.04312   0.00000  Uiso   1.00
C86    C     0.78150   0.42744   1.00014   0.00000  Uiso   1.00
H25    H     0.72825   0.46529   0.91636   0.00000  Uiso   1.00
H26    H     0.66641   0.28469   0.97822   0.00000  Uiso   1.00
H27    H     0.52178   0.33361   0.78470   0.00000  Uiso   1.00
H28    H     0.58365   0.27175   0.96529   0.00000  Uiso   1.00
H29    H     0.53471   0.41636   0.77176   0.00000  Uiso   1.00
H30    H     0.71531   0.47823   0.83360   0.00000  Uiso   1.00
H31    H     0.71788   0.54427   0.76149   0.00000  Uiso   1.00
O13    O     0.67665   0.59871   0.67780   0.00000  Uiso   1.00
O14    O     0.57332   0.57218   0.65128   0.00000  Uiso   1.00
H32    H     0.53211   0.48848   0.70572   0.00000  Uiso   1.00
H33    H     0.73852   0.28211   0.04426   0.00000  Uiso   1.00
O15    O     0.82222   0.32334   0.09870   0.00000  Uiso   1.00
O16    O     0.84874   0.42666   0.07217   0.00000  Uiso   1.00
H34    H     0.79429   0.46788   0.98847   0.00000  Uiso   1.00
C87    C     0.49987   0.21852   0.92745   0.00000  Uiso   1.00
C88    C     0.45689   0.19236   0.90133   0.00000  Uiso   1.00
C89    C     0.44239   0.20685   0.84868   0.00000  Uiso   1.00
C90    C     0.46854   0.24983   0.82255   0.00000  Uiso   1.00
H35    H     0.51154   0.20572   0.96789   0.00000  Uiso   1.00
O17    O     0.42784   0.15128   0.92667   0.00000  Uiso   1.00
O18    O     0.40131   0.17780   0.82335   0.00000  Uiso   1.00
H36    H     0.45575   0.26150   0.78211   0.00000  Uiso   1.00
Fe3    Fe    0.87502   0.37500   0.12499   0.00000  Uiso   1.00
C91    C     0.92145   0.64926   0.35075   0.00000  Uiso   1.00
C92    C     0.89923   0.67147   0.39923   0.00000  Uiso   1.00
C93    C     0.85073   0.64925   0.42145   0.00000  Uiso   1.00
C94    C     0.82852   0.60077   0.39923   0.00000  Uiso   1.00
C95    C     0.85075   0.57855   0.35074   0.00000  Uiso   1.00
C96    C     0.89923   0.60076   0.32852   0.00000  Uiso   1.00
C97    C     0.78565   0.57473   0.42753   0.00000  Uiso   1.00
C98    C     0.76074   0.59906   0.47231   0.00000  Uiso   1.00
C99    C     0.77765   0.65096   0.48922   0.00000  Uiso   1.00
C100   C     0.82243   0.67529   0.46432   0.00000  Uiso   1.00
C101   C     0.96431   0.67756   0.32471   0.00000  Uiso   1.00
C102   C     0.98922   0.72234   0.34904   0.00000  Uiso   1.00
C103   C     0.97230   0.73925   0.40095   0.00000  Uiso   1.00
C104   C     0.92752   0.71434   0.42528   0.00000  Uiso   1.00
C105   C     0.92527   0.57247   0.28566   0.00000  Uiso   1.00
C106   C     0.90095   0.52768   0.26075   0.00000  Uiso   1.00
C107   C     0.84905   0.51077   0.27766   0.00000  Uiso   1.00
C108   C     0.82471   0.53568   0.32244   0.00000  Uiso   1.00
C109   C     0.82255   0.46853   0.24983   0.00000  Uiso   1.00
C110   C     0.84869   0.44237   0.20685   0.00000  Uiso   1.00
C111   C     0.90133   0.45687   0.19236   0.00000  Uiso   1.00
C112   C     0.92745   0.49985   0.21852   0.00000  Uiso   1.00
C113   C     0.74981   0.67746   0.53146   0.00000  Uiso   1.00
C114   C     0.70683   0.65133   0.55762   0.00000  Uiso   1.00
C115   C     0.69234   0.59868   0.54312   0.00000  Uiso   1.00
C116   C     0.71850   0.57256   0.50014   0.00000  Uiso   1.00
H37    H     0.77175   0.53471   0.41636   0.00000  Uiso   1.00
H38    H     0.83359   0.71531   0.47822   0.00000  Uiso   1.00
H39    H     0.97822   0.66639   0.28470   0.00000  Uiso   1.00
H40    H     0.91635   0.72825   0.46529   0.00000  Uiso   1.00
H41    H     0.96529   0.58364   0.27176   0.00000  Uiso   1.00
H42    H     0.78469   0.52177   0.33361   0.00000  Uiso   1.00
H43    H     0.78212   0.45573   0.26149   0.00000  Uiso   1.00
O19    O     0.82335   0.40129   0.17780   0.00000  Uiso   1.00
O20    O     0.92668   0.42782   0.15128   0.00000  Uiso   1.00
H44    H     0.96789   0.51152   0.20572   0.00000  Uiso   1.00
H45    H     0.76148   0.71789   0.54426   0.00000  Uiso   1.00
O21    O     0.67778   0.67666   0.59870   0.00000  Uiso   1.00
O22    O     0.65126   0.57334   0.57217   0.00000  Uiso   1.00
H46    H     0.70571   0.53212   0.48847   0.00000  Uiso   1.00
C117   C     1.00013   0.78148   0.42745   0.00000  Uiso   1.00
C118   C     0.04311   0.80764   0.40133   0.00000  Uiso   1.00
C119   C     0.05761   0.79315   0.34868   0.00000  Uiso   1.00
C120   C     0.03146   0.75017   0.32255   0.00000  Uiso   1.00
H47    H     0.98846   0.79428   0.46789   0.00000  Uiso   1.00
O23    O     0.07216   0.84872   0.42667   0.00000  Uiso   1.00
O24    O     0.09869   0.82220   0.32335   0.00000  Uiso   1.00
H48    H     0.04425   0.73850   0.28211   0.00000  Uiso   1.00
Fe4    Fe    0.62498   0.62500   0.62499   0.00000  Uiso   1.00
loop_
_geom_bond_atom_site_label_1
_geom_bond_atom_site_label_2
_geom_bond_distance
_geom_bond_site_symmetry_2
_ccdc_geom_bond_type
C1     C2      1.423   .     A
C1     C6      1.424   .     A
C1     C11     1.419   .     A
C2     C3      1.424   .     A
C2     C14     1.419   .     A
C3     C4      1.423   .     A
C3     C10     1.419   .     A
C4     C5      1.424   .     A
C4     C7      1.419   .     A
C5     C6      1.423   .     A
C5     C18     1.419   .     A
C6     C15     1.419   .     A
C7     C8      1.397   .     A
C7     H1      1.079   .     S
C8     C9      1.408   .     A
C8     C26     1.407   1_554 A
C9     C10     1.397   .     A
C9     C23     1.407   .     A
C10    H2      1.079   .     S
C11    C12     1.397   .     A
C11    H3      1.079   .     S
C12    C13     1.408   .     A
C12    C30     1.407   .     A
C13    C14     1.397   .     A
C13    C27     1.407   1_545 A
C14    H4      1.079   .     S
C15    C16     1.397   .     A
C15    H5      1.079   .     S
C16    C17     1.408   .     A
C16    C22     1.407   1_455 A
C17    C18     1.397   .     A
C17    C19     1.407   .     A
C18    H6      1.079   .     S
C19    C20     1.397   1_455 A
C19    H7      1.084   .     S
C20    C19     1.397   1_655 A
C20    C21     1.392   .     A
C20    O1      1.388   .     S
C21    C22     1.397   .     A
C21    O2      1.388   .     S
C22    C16     1.407   1_655 A
C22    H8      1.084   .     S
C23    C24     1.397   1_554 A
C23    H9      1.084   .     S
C24    C23     1.397   1_556 A
C24    C25     1.392   .     A
C24    O3      1.388   .     S
C25    C26     1.397   .     A
C25    O4      1.388   .     S
C26    C8      1.407   1_556 A
C26    H10     1.084   .     S
O1     Fe3     1.932   .     S
O2     Fe3     1.932   .     S
O3     Fe2     1.932   .     S
O4     Fe2     1.932   .     S
C27    C13     1.407   1_565 A
C27    C28     1.397   .     A
C27    H11     1.084   .     S
C28    C29     1.392   .     A
C28    O5      1.388   .     S
C29    C30     1.397   1_565 A
C29    O6      1.388   .     S
C30    C29     1.397   1_545 A
C30    H12     1.084   .     S
O5     Fe1     1.932   .     S
O6     Fe1     1.932   .     S
Fe1    O9      1.932   .     S
Fe1    O10     1.932   .     S
Fe1    O23     1.932   .     S
Fe1    O24     1.932   .     S
C31    C32     1.423   .     A
C31    C36     1.424   .     A
C31    C41     1.419   .     A
C32    C33     1.424   .     A
C32    C44     1.419   .     A
C33    C34     1.423   .     A
C33    C40     1.419   .     A
C34    C35     1.424   .     A
C34    C37     1.419   .     A
C35    C36     1.423   .     A
C35    C48     1.419   .     A
C36    C45     1.419   .     A
C37    C38     1.397   .     A
C37    H13     1.079   .     S
C38    C39     1.408   .     A
C38    C56     1.407   .     A
C39    C40     1.397   .     A
C39    C53     1.407   .     A
C40    H14     1.079   .     S
C41    C42     1.397   .     A
C41    H15     1.079   .     S
C42    C43     1.408   .     A
C42    C60     1.407   .     A
C43    C44     1.397   .     A
C43    C57     1.407   1_565 A
C44    H16     1.079   .     S
C45    C46     1.397   .     A
C45    H17     1.079   .     S
C46    C47     1.408   .     A
C46    C52     1.407   .     A
C47    C48     1.397   .     A
C47    C49     1.407   .     A
C48    H18     1.079   .     S
C49    C50     1.397   .     A
C49    H19     1.084   .     S
C50    C51     1.392   .     A
C50    O7      1.388   .     S
C51    C52     1.397   .     A
C51    O8      1.388   .     S
C52    H20     1.084   .     S
C53    C54     1.397   .     A
C53    H21     1.084   .     S
C54    C55     1.392   .     A
C54    O9      1.388   .     S
C55    C56     1.397   .     A
C55    O10     1.388   .     S
C56    H22     1.084   .     S
O7     Fe4     1.932   .     S
O8     Fe4     1.932   .     S
C57    C43     1.407   1_545 A
C57    C58     1.397   .     A
C57    H23     1.084   .     S
C58    C59     1.392   .     A
C58    O11     1.388   .     S
C59    C60     1.397   1_545 A
C59    O12     1.388   .     S
C60    C59     1.397   1_565 A
C60    H24     1.084   .     S
O11    Fe2     1.932   .     S
O12    Fe2     1.932   .     S
Fe2    O17     1.932   .     S
Fe2    O18     1.932   .     S
C61    C62     1.423   .     A
C61    C66     1.424   .     A
C61    C71     1.419   .     A
C62    C63     1.424   .     A
C62    C74     1.419   .     A
C63    C64     1.423   .     A
C63    C70     1.419   .     A
C64    C65     1.424   .     A
C64    C67     1.419   .     A
C65    C66     1.423   .     A
C65    C78     1.419   .     A
C66    C75     1.419   .     A
C67    C68     1.397   .     A
C67    H25     1.079   .     S
C68    C69     1.408   .     A
C68    C86     1.407   .     A
C69    C70     1.397   .     A
C69    C83     1.407   1_556 A
C70    H26     1.079   .     S
C71    C72     1.397   .     A
C71    H27     1.079   .     S
C72    C73     1.408   .     A
C72    C90     1.407   .     A
C73    C74     1.397   .     A
C73    C87     1.407   .     A
C74    H28     1.079   .     S
C75    C76     1.397   .     A
C75    H29     1.079   .     S
C76    C77     1.408   .     A
C76    C82     1.407   .     A
C77    C78     1.397   .     A
C77    C79     1.407   .     A
C78    H30     1.079   .     S
C79    C80     1.397   .     A
C79    H31     1.084   .     S
C80    C81     1.392   .     A
C80    O13     1.388   .     S
C81    C82     1.397   .     A
C81    O14     1.388   .     S
C82    H32     1.084   .     S
C83    C69     1.407   1_554 A
C83    C84     1.397   .     A
C83    H33     1.084   .     S
C84    C85     1.392   .     A
C84    O15     1.388   .     S
C85    C86     1.397   1_554 A
C85    O16     1.388   .     S
C86    C85     1.397   1_556 A
C86    H34     1.084   .     S
O13    Fe4     1.932   .     S
O14    Fe4     1.932   .     S
O15    Fe3     1.932   .     S
O16    Fe3     1.932   .     S
C87    C88     1.397   .     A
C87    H35     1.084   .     S
C88    C89     1.392   .     A
C88    O17     1.388   .     S
C89    C90     1.397   .     A
C89    O18     1.388   .     S
C90    H36     1.084   .     S
Fe3    O19     1.932   .     S
Fe3    O20     1.932   .     S
C91    C92     1.423   .     A
C91    C96     1.424   .     A
C91    C101    1.419   .     A
C92    C93     1.424   .     A
C92    C104    1.419   .     A
C93    C94     1.423   .     A
C93    C100    1.419   .     A
C94    C95     1.424   .     A
C94    C97     1.419   .     A
C95    C96     1.423   .     A
C95    C108    1.419   .     A
C96    C105    1.419   .     A
C97    C98     1.397   .     A
C97    H37     1.079   .     S
C98    C99     1.408   .     A
C98    C116    1.407   .     A
C99    C100    1.397   .     A
C99    C113    1.407   .     A
C100   H38     1.079   .     S
C101   C102    1.397   .     A
C101   H39     1.079   .     S
C102   C103    1.408   .     A
C102   C120    1.407   1_655 A
C103   C104    1.397   .     A
C103   C117    1.407   .     A
C104   H40     1.079   .     S
C105   C106    1.397   .     A
C105   H41     1.079   .     S
C106   C107    1.408   .     A
C106   C112    1.407   .     A
C107   C108    1.397   .     A
C107   C109    1.407   .     A
C108   H42     1.079   .     S
C109   C110    1.397   .     A
C109   H43     1.084   .     S
C110   C111    1.392   .     A
C110   O19     1.388   .     S
C111   C112    1.397   .     A
C111   O20     1.388   .     S
C112   H44     1.084   .     S
C113   C114    1.397   .     A
C113   H45     1.084   .     S
C114   C115    1.392   .     A
C114   O21     1.388   .     S
C115   C116    1.397   .     A
C115   O22     1.388   .     S
C116   H46     1.084   .     S
O21    Fe4     1.932   .     S
O22    Fe4     1.932   .     S
C117   C118    1.397   1_655 A
C117   H47     1.084   .     S
C118   C117    1.397   1_455 A
C118   C119    1.392   .     A
C118   O23     1.388   .     S
C119   C120    1.397   .     A
C119   O24     1.388   .     S
C120   C102    1.407   1_455 A
C120   H48     1.084   .     S
