data_stu-spacer-PcMN_O-Feoct
_audit_creation_date              2021-11-06
_audit_creation_method            'Materials Studio'
_symmetry_space_group_name_H-M    'I4/MMM'
_symmetry_Int_Tables_number       139
_symmetry_cell_setting            tetragonal
loop_
_symmetry_equiv_pos_as_xyz
  x,y,z
  -x,-y,z
  -y,x,z
  y,-x,z
  -x,y,-z
  x,-y,-z
  y,x,-z
  -y,-x,-z
  -x,-y,-z
  x,y,-z
  y,-x,-z
  -y,x,-z
  x,-y,z
  -x,y,z
  -y,-x,z
  y,x,z
  x+1/2,y+1/2,z+1/2
  -x+1/2,-y+1/2,z+1/2
  -y+1/2,x+1/2,z+1/2
  y+1/2,-x+1/2,z+1/2
  -x+1/2,y+1/2,-z+1/2
  x+1/2,-y+1/2,-z+1/2
  y+1/2,x+1/2,-z+1/2
  -y+1/2,-x+1/2,-z+1/2
  -x+1/2,-y+1/2,-z+1/2
  x+1/2,y+1/2,-z+1/2
  y+1/2,-x+1/2,-z+1/2
  -y+1/2,x+1/2,-z+1/2
  x+1/2,-y+1/2,z+1/2
  -x+1/2,y+1/2,z+1/2
  -y+1/2,-x+1/2,z+1/2
  y+1/2,x+1/2,z+1/2
_cell_length_a                    64.2242
_cell_length_b                    64.2242
_cell_length_c                    53.4614
_cell_angle_alpha                 90.0000
_cell_angle_beta                  90.0000
_cell_angle_gamma                 90.0000
loop_
_atom_site_label
_atom_site_type_symbol
_atom_site_fract_x
_atom_site_fract_y
_atom_site_fract_z
_atom_site_U_iso_or_equiv
_atom_site_adp_type
_atom_site_occupancy
C1     C     0.42668   0.20816   0.05045   0.00000  Uiso   1.00
C2     C     0.42099   0.20816   0.07594   0.00000  Uiso   1.00
C3     C     0.43679   0.20816   0.09492   0.00000  Uiso   1.00
C4     C     0.45800   0.20817   0.08808   0.00000  Uiso   1.00
C5     C     0.46281   0.20817   0.06264   0.00000  Uiso   1.00
C6     C     0.44785   0.20816   0.04467   0.00000  Uiso   1.00
C7     C     0.45812   0.20816   0.02206   0.00000  Uiso   1.00
N1     N     0.47914   0.20817   0.02506   0.00000  Uiso   1.00
C8     C     0.48163   0.20817   0.05031   0.00000  Uiso   1.00
H1     H     0.41508   0.20815   0.03574   0.00000  Uiso   1.00
H2     H     0.47025   0.20817   0.10202   0.00000  Uiso   1.00
C33    C     0.39991   0.20815   0.91703   0.00000  Uiso   1.00
C34    C     0.39470   0.20815   0.89167   0.00000  Uiso   1.00
C35    C     0.40983   0.20816   0.87349   0.00000  Uiso   1.00
C36    C     0.43094   0.20816   0.87976   0.00000  Uiso   1.00
H9     H     0.38769   0.20815   0.93100   0.00000  Uiso   1.00
O1     O     0.37435   0.20814   0.88331   0.00000  Uiso   1.00
O2     O     0.40287   0.20815   0.84905   0.00000  Uiso   1.00
H10    H     0.44257   0.20817   0.86508   0.00000  Uiso   1.00
C386   C     0.27098   0.24439   0.25001   0.00000  Uiso   1.00
O65    O     0.29167   0.23817   0.25003   0.00000  Uiso   1.00
C433   C     0.31284   0.20809   0.20637   0.00000  Uiso   1.00
C434   C     0.32823   0.20810   0.22486   0.00000  Uiso   1.00
C435   C     0.34933   0.20812   0.21822   0.00000  Uiso   1.00
C436   C     0.35465   0.20812   0.19284   0.00000  Uiso   1.00
C437   C     0.33949   0.20811   0.17463   0.00000  Uiso   1.00
C438   C     0.31836   0.20810   0.18102   0.00000  Uiso   1.00
O97    O     0.29215   0.20806   0.21385   0.00000  Uiso   1.00
O98    O     0.32201   0.20811   0.24971   0.00000  Uiso   1.00
H145   H     0.36132   0.20812   0.23245   0.00000  Uiso   1.00
O99    O     0.37499   0.20814   0.18449   0.00000  Uiso   1.00
O100   O     0.34644   0.20812   0.15019   0.00000  Uiso   1.00
H146   H     0.30651   0.20809   0.16662   0.00000  Uiso   1.00
Fe25   Cu    0.37466   0.20814   0.15058   0.00000  Uiso   1.00
Fe1    Fe    0.20808   0.29192   0.25000   0.00000  Uiso   1.00
N2     N     0.50000   0.20817   0.06213   0.00000  Uiso   1.00
N5     N     0.55172   0.20816  -0.00000   0.00000  Uiso   1.00
Fe17   Ni    0.50000   0.20816   0.00000   0.00000  Uiso   1.00
C385   C     0.26547   0.26547   0.25001   0.00000  Uiso   1.00
H129   H     0.27739   0.27739   0.25002   0.00000  Uiso   1.00
loop_
_geom_bond_atom_site_label_1
_geom_bond_atom_site_label_2
_geom_bond_distance
_geom_bond_site_symmetry_2
_ccdc_geom_bond_type
C1     C2      1.411   .     A
C1     C6      1.394   .     A
C1     H1      1.084   .     S
C2     C3      1.435   .     A
C2     C33     1.405   10_556 A
C3     C4      1.411   .     A
C3     C36     1.405   10_556 A
C4     C5      1.394   .     A
C4     H2      1.084   .     S
C5     C6      1.359   .     A
C5     C8      1.377   .     A
C6     C7      1.377   .     A
C7     N1      1.359   .     A
C7     N5      1.338   5_655 A
N1     C8      1.359   .     A
N1     Fe17    1.895   .     S
C8     N2      1.338   .     A
C33    C2      1.405   10_556 A
C33    C34     1.396   .     A
C33    H9      1.083   .     S
C34    C35     1.374   .     A
C34    O1      1.381   .     S
C35    C36     1.396   .     A
C35    O2      1.381   .     S
C36    C3      1.405   10_556 A
C36    H10     1.083   .     S
O1     Fe25    1.812   10_556 S
O2     Fe25    1.812   10_556 S
C386   C385    1.399   .     A
C386   C386    1.396   24    A
C386   O65     1.388   .     S
O65    Fe1     1.932   16    S
C433   C434    1.398   .     A
C433   C438    1.401   .     A
C433   O97     1.387   .     S
C434   C435    1.401   .     A
C434   O98     1.387   .     S
C435   C436    1.399   .     A
C435   H145    1.082   .     S
C436   C437    1.377   .     A
C436   O99     1.381   .     S
C437   C438    1.399   .     A
C437   O100    1.381   .     S
C438   H146    1.082   .     S
O97    Fe1     1.933   16    S
O98    Fe1     1.933   16    S
O99    Fe25    1.813   .     S
O100   Fe25    1.813   .     S
Fe25   O1      1.812   10_556 S
Fe25   O2      1.812   10_556 S
Fe1    O65     1.932   25    S
Fe1    O65     1.932   16    S
Fe1    O98     1.933   16    S
Fe1    O98     1.933   25    S
Fe1    O97     1.933   16    S
Fe1    O97     1.933   25    S
N2     C8      1.338   14_655 A
N5     C7      1.338   14_655 A
N5     C7      1.338   5_655 A
Fe17   N1      1.895   14_655 S
Fe17   N1      1.895   10    S
Fe17   N1      1.895   5_655 S
C385   C386    1.399   16    A
C385   H129    1.083   .     S
