data_stu-spacer-PcM_O-Feoct
_audit_creation_date              2021-11-06
_audit_creation_method            'Materials Studio'
_symmetry_space_group_name_H-M    'I4/MMM'
_symmetry_Int_Tables_number       139
_symmetry_cell_setting            tetragonal
loop_
_symmetry_equiv_pos_as_xyz
  x,y,z
  -x,-y,z
  -y,x,z
  y,-x,z
  -x,y,-z
  x,-y,-z
  y,x,-z
  -y,-x,-z
  -x,-y,-z
  x,y,-z
  y,-x,-z
  -y,x,-z
  x,-y,z
  -x,y,z
  -y,-x,z
  y,x,z
  x+1/2,y+1/2,z+1/2
  -x+1/2,-y+1/2,z+1/2
  -y+1/2,x+1/2,z+1/2
  y+1/2,-x+1/2,z+1/2
  -x+1/2,y+1/2,-z+1/2
  x+1/2,-y+1/2,-z+1/2
  y+1/2,x+1/2,-z+1/2
  -y+1/2,-x+1/2,-z+1/2
  -x+1/2,-y+1/2,-z+1/2
  x+1/2,y+1/2,-z+1/2
  y+1/2,-x+1/2,-z+1/2
  -y+1/2,x+1/2,-z+1/2
  x+1/2,-y+1/2,z+1/2
  -x+1/2,y+1/2,z+1/2
  -y+1/2,-x+1/2,z+1/2
  y+1/2,x+1/2,z+1/2
_cell_length_a                    57.3525
_cell_length_b                    57.3525
_cell_length_c                    46.5882
_cell_angle_alpha                 90.0000
_cell_angle_beta                  90.0000
_cell_angle_gamma                 90.0000
loop_
_atom_site_label
_atom_site_type_symbol
_atom_site_fract_x
_atom_site_fract_y
_atom_site_fract_z
_atom_site_U_iso_or_equiv
_atom_site_adp_type
_atom_site_occupancy
C1     C     0.41782   0.20314   0.05801   0.00000  Uiso   1.00
C2     C     0.41195   0.20314   0.08732   0.00000  Uiso   1.00
C3     C     0.42907   0.20315   0.10839   0.00000  Uiso   1.00
C4     C     0.45288   0.20315   0.10117   0.00000  Uiso   1.00
C5     C     0.45838   0.20316   0.07193   0.00000  Uiso   1.00
C6     C     0.44157   0.20315   0.05124   0.00000  Uiso   1.00
C7     C     0.45308   0.20315   0.02531   0.00000  Uiso   1.00
N1     N     0.47663   0.20316   0.02877   0.00000  Uiso   1.00
C8     C     0.47944   0.20316   0.05776   0.00000  Uiso   1.00
H1     H     0.40454   0.20313   0.04150   0.00000  Uiso   1.00
O1     O     0.38920   0.20313   0.09699   0.00000  Uiso   1.00
O2     O     0.42122   0.20314   0.13641   0.00000  Uiso   1.00
H2     H     0.46629   0.20316   0.11752   0.00000  Uiso   1.00
C258   C     0.27349   0.24372   0.25001   0.00000  Uiso   1.00
O65    O     0.29666   0.23675   0.25003   0.00000  Uiso   1.00
C305   C     0.32037   0.20307   0.19993   0.00000  Uiso   1.00
C306   C     0.33761   0.20308   0.22115   0.00000  Uiso   1.00
C307   C     0.36124   0.20310   0.21353   0.00000  Uiso   1.00
C308   C     0.36718   0.20311   0.18441   0.00000  Uiso   1.00
C309   C     0.35021   0.20310   0.16351   0.00000  Uiso   1.00
C310   C     0.32656   0.20308   0.17084   0.00000  Uiso   1.00
O97    O     0.29720   0.20304   0.20851   0.00000  Uiso   1.00
O98    O     0.33064   0.20309   0.24967   0.00000  Uiso   1.00
H81    H     0.37465   0.20311   0.22987   0.00000  Uiso   1.00
O99    O     0.38997   0.20312   0.17483   0.00000  Uiso   1.00
O100   O     0.35799   0.20311   0.13546   0.00000  Uiso   1.00
H82    H     0.31328   0.20307   0.15432   0.00000  Uiso   1.00
Fe25   Cu    0.38960   0.20313   0.13592   0.00000  Uiso   1.00
Fe1    Fe    0.20306   0.29694   0.25000   0.00000  Uiso   1.00
N2     N     0.50000   0.20316   0.07132   0.00000  Uiso   1.00
N5     N     0.55794   0.20315  -0.00000   0.00000  Uiso   1.00
Fe17   Ni    0.50000   0.20316  -0.00000   0.00000  Uiso   1.00
C257   C     0.26733   0.26733   0.25002   0.00000  Uiso   1.00
H65    H     0.28068   0.28068   0.25003   0.00000  Uiso   1.00
loop_
_geom_bond_atom_site_label_1
_geom_bond_atom_site_label_2
_geom_bond_distance
_geom_bond_site_symmetry_2
_ccdc_geom_bond_type
C1     C2      1.406   .     A
C1     C6      1.399   .     A
C1     H1      1.082   .     S
C2     C3      1.388   .     A
C2     O1      1.381   .     S
C3     C4      1.406   .     A
C3     O2      1.381   .     S
C4     C5      1.399   .     A
C4     H2      1.082   .     S
C5     C6      1.363   .     A
C5     C8      1.376   .     A
C6     C7      1.376   .     A
C7     N1      1.360   .     A
C7     N5      1.338   5_655 A
N1     C8      1.360   .     A
N1     Fe17    1.896   .     S
C8     N2      1.338   .     A
O1     Fe25    1.814   .     S
O2     Fe25    1.814   .     S
C258   C257    1.399   .     A
C258   C258    1.396   24    A
C258   O65     1.388   .     S
O65    Fe1     1.932   16    S
C305   C306    1.398   .     A
C305   C310    1.401   .     A
C305   O97     1.387   .     S
C306   C307    1.401   .     A
C306   O98     1.387   .     S
C307   C308    1.399   .     A
C307   H81     1.082   .     S
C308   C309    1.377   .     A
C308   O99     1.381   .     S
C309   C310    1.399   .     A
C309   O100    1.381   .     S
C310   H82     1.082   .     S
O97    Fe1     1.933   16    S
O98    Fe1     1.933   16    S
O99    Fe25    1.813   .     S
O100   Fe25    1.813   .     S
Fe1    O65     1.932   25    S
Fe1    O65     1.932   16    S
Fe1    O98     1.933   16    S
Fe1    O98     1.933   25    S
Fe1    O97     1.933   16    S
Fe1    O97     1.933   25    S
N2     C8      1.338   14_655 A
N5     C7      1.338   14_655 A
N5     C7      1.338   5_655 A
Fe17   N1      1.896   14_655 S
Fe17   N1      1.896   10    S
Fe17   N1      1.896   5_655 S
C257   C258    1.399   16    A
C257   H65     1.083   .     S
