data_sur-spacer-PcMN_O-Feoct
_audit_creation_date              2021-11-06
_audit_creation_method            'Materials Studio'
_symmetry_space_group_name_H-M    'CCCM'
_symmetry_Int_Tables_number       66
_symmetry_cell_setting            orthorhombic
loop_
_symmetry_equiv_pos_as_xyz
  x,y,z
  -x,-y,z
  -x,y,-z+1/2
  x,-y,-z+1/2
  -x,-y,-z
  x,y,-z
  x,-y,z+1/2
  -x,y,z+1/2
  x+1/2,y+1/2,z
  -x+1/2,-y+1/2,z
  -x+1/2,y+1/2,-z+1/2
  x+1/2,-y+1/2,-z+1/2
  -x+1/2,-y+1/2,-z
  x+1/2,y+1/2,-z
  x+1/2,-y+1/2,z+1/2
  -x+1/2,y+1/2,z+1/2
_cell_length_a                    53.0214
_cell_length_b                    37.8011
_cell_length_c                    53.4645
_cell_angle_alpha                 90.0000
_cell_angle_beta                  90.0000
_cell_angle_gamma                 90.0000
loop_
_atom_site_label
_atom_site_type_symbol
_atom_site_fract_x
_atom_site_fract_y
_atom_site_fract_z
_atom_site_U_iso_or_equiv
_atom_site_adp_type
_atom_site_occupancy
C1     C     0.31278   0.33810   0.55045   0.00000  Uiso   1.00
C2     C     0.31766   0.34494   0.57594   0.00000  Uiso   1.00
C3     C     0.30414   0.32595   0.59491   0.00000  Uiso   1.00
C4     C     0.28596   0.30046   0.58807   0.00000  Uiso   1.00
C5     C     0.28184   0.29468   0.56264   0.00000  Uiso   1.00
C6     C     0.29465   0.31266   0.54467   0.00000  Uiso   1.00
C7     C     0.28586   0.30033   0.52206   0.00000  Uiso   1.00
N1     N     0.26787   0.27507   0.52506   0.00000  Uiso   1.00
C8     C     0.26573   0.27207   0.55031   0.00000  Uiso   1.00
H1     H     0.32272   0.35205   0.53574   0.00000  Uiso   1.00
H2     H     0.27548   0.28574   0.60201   0.00000  Uiso   1.00
C33    C     0.33571   0.37027   1.41703   0.00000  Uiso   1.00
C34    C     0.34018   0.37653   1.39168   0.00000  Uiso   1.00
C35    C     0.32722   0.35834   1.37350   0.00000  Uiso   1.00
C36    C     0.30914   0.33297   1.37976   0.00000  Uiso   1.00
H9     H     0.34617   0.38496   1.43101   0.00000  Uiso   1.00
O1     O     0.35760   0.40098   1.38331   0.00000  Uiso   1.00
O2     O     0.33318   0.36669   1.34905   0.00000  Uiso   1.00
H10    H     0.29918   0.31899   1.36508   0.00000  Uiso   1.00
C193   C     0.08973   0.02512   0.70637   0.00000  Uiso   1.00
C194   C     0.10290   0.04364   0.72486   0.00000  Uiso   1.00
C195   C     0.12097   0.06899   0.71821   0.00000  Uiso   1.00
C196   C     0.12552   0.07537   0.69284   0.00000  Uiso   1.00
C197   C     0.11254   0.05714   0.67463   0.00000  Uiso   1.00
C198   C     0.09446   0.03176   0.68102   0.00000  Uiso   1.00
O33    O     0.07202   0.00025   0.71385   0.00000  Uiso   1.00
O34    O     0.09756   0.03618   0.74971   0.00000  Uiso   1.00
H65    H     0.13122   0.08340   0.73245   0.00000  Uiso   1.00
O35    O     0.14294   0.09982   0.68448   0.00000  Uiso   1.00
O36    O     0.11849   0.06549   0.65019   0.00000  Uiso   1.00
H66    H     0.08431   0.01750   0.66663   0.00000  Uiso   1.00
Fe13   Cu    0.14266   0.09941   0.65058   0.00000  Uiso   1.00
C290   C     0.97723   0.01846   0.75000   0.00000  Uiso   1.00
O97    O     0.95418   0.03585   0.74998   0.00000  Uiso   1.00
N2     N     0.25000   0.25000   0.56213   0.00000  Uiso   1.00
N5     N     0.20571   0.18785   0.50000   0.00000  Uiso   1.00
Fe1    Ni    0.25000   0.25000   0.50000   0.00000  Uiso   1.00
Fe5    Fe    0.07180   0.00000   0.75000   0.00000  Uiso   1.00
C289   C     1.00000   0.03718   0.75000   0.00000  Uiso   1.00
H97    H     1.00000   0.06582   0.75000   0.00000  Uiso   1.00
loop_
_geom_bond_atom_site_label_1
_geom_bond_atom_site_label_2
_geom_bond_distance
_geom_bond_site_symmetry_2
_ccdc_geom_bond_type
C1     C2      1.411   .     A
C1     C6      1.394   .     A
C1     H1      1.084   .     S
C2     C3      1.435   .     A
C2     C33     1.405   6_557 A
C3     C4      1.411   .     A
C3     C36     1.405   6_557 A
C4     C5      1.394   .     A
C4     H2      1.084   .     S
C5     C6      1.359   .     A
C5     C8      1.377   .     A
C6     C7      1.377   .     A
C7     N1      1.359   .     A
C7     N5      1.338   10    A
N1     C8      1.359   .     A
N1     Fe1     1.895   .     S
C8     N2      1.338   .     A
C33    C2      1.405   6_557 A
C33    C34     1.396   .     A
C33    H9      1.083   .     S
C34    C35     1.374   .     A
C34    O1      1.381   .     S
C35    C36     1.396   .     A
C35    O2      1.381   .     S
C36    C3      1.405   6_557 A
C36    H10     1.083   .     S
O1     Fe13    1.812   13_557 S
O2     Fe13    1.812   13_557 S
C193   C194    1.398   .     A
C193   C198    1.401   .     A
C193   O33     1.387   .     S
C194   C195    1.401   .     A
C194   O34     1.387   .     S
C195   C196    1.399   .     A
C195   H65     1.082   .     S
C196   C197    1.377   .     A
C196   O35     1.381   .     S
C197   C198    1.399   .     A
C197   O36     1.381   .     S
C198   H66     1.082   .     S
O33    Fe5     1.933   .     S
O34    Fe5     1.933   .     S
O35    Fe13    1.813   .     S
O36    Fe13    1.813   .     S
Fe13   O2      1.812   13_557 S
Fe13   O1      1.812   13_557 S
C290   C289    1.399   .     A
C290   C290    1.396   4_556 A
C290   O97     1.388   .     S
O97    Fe5     1.932   2_655 S
N2     C8      1.338   10    A
N5     C7      1.338   10    A
N5     C7      1.338   13_556 A
Fe1    N1      1.895   10    S
Fe1    N1      1.895   13_556 S
Fe1    N1      1.895   6_556 S
Fe5    O33     1.933   4_556 S
Fe5    O34     1.933   4_556 S
Fe5    O97     1.932   2_655 S
Fe5    O97     1.932   3_656 S
C289   C290    1.399   3_756 A
C289   H97     1.083   .     S
