data_sur-PcMN_O-Feoct
_audit_creation_date              2021-11-06
_audit_creation_method            'Materials Studio'
_symmetry_space_group_name_H-M    'CCCM'
_symmetry_Int_Tables_number       66
_symmetry_cell_setting            orthorhombic
loop_
_symmetry_equiv_pos_as_xyz
  x,y,z
  -x,-y,z
  -x,y,-z+1/2
  x,-y,-z+1/2
  -x,-y,-z
  x,y,-z
  x,-y,z+1/2
  -x,y,z+1/2
  x+1/2,y+1/2,z
  -x+1/2,-y+1/2,z
  -x+1/2,y+1/2,-z+1/2
  x+1/2,-y+1/2,-z+1/2
  -x+1/2,-y+1/2,-z
  x+1/2,y+1/2,-z
  x+1/2,-y+1/2,z+1/2
  -x+1/2,y+1/2,z+1/2
_cell_length_a                    38.2261
_cell_length_b                    22.9287
_cell_length_c                    32.4808
_cell_angle_alpha                 90.0000
_cell_angle_beta                  90.0000
_cell_angle_gamma                 90.0000
loop_
_atom_site_label
_atom_site_type_symbol
_atom_site_fract_x
_atom_site_fract_y
_atom_site_fract_z
_atom_site_U_iso_or_equiv
_atom_site_adp_type
_atom_site_occupancy
C1     C     0.33721   0.39502   0.58306   0.00000  Uiso   1.00
C2     C     0.34399   0.40624   0.62503   0.00000  Uiso   1.00
C3     C     0.32524   0.37501   0.65621   0.00000  Uiso   1.00
C4     C     0.29999   0.33304   0.64496   0.00000  Uiso   1.00
C5     C     0.29424   0.32354   0.60310   0.00000  Uiso   1.00
C6     C     0.31203   0.35314   0.57353   0.00000  Uiso   1.00
C7     C     0.29982   0.33285   0.53632   0.00000  Uiso   1.00
N1     N     0.27482   0.29127   0.54125   0.00000  Uiso   1.00
C8     C     0.27185   0.28632   0.58281   0.00000  Uiso   1.00
H1     H     0.35101   0.41799   0.55885   0.00000  Uiso   1.00
H2     H     0.28543   0.30879   0.66791   0.00000  Uiso   1.00
C33    C     0.36904   0.44791   1.36345   0.00000  Uiso   1.00
C34    C     0.37548   0.45856   1.32179   0.00000  Uiso   1.00
C35    C     0.35726   0.42815   1.29146   0.00000  Uiso   1.00
C36    C     0.33220   0.38648   1.30214   0.00000  Uiso   1.00
H9     H     0.38349   0.47201   1.38657   0.00000  Uiso   1.00
O1     O     0.40007   0.49953   1.30946   0.00000  Uiso   1.00
O2     O     0.36471   0.44040   1.25054   0.00000  Uiso   1.00
H10    H     0.31830   0.36331   1.27809   0.00000  Uiso   1.00
C194   C     0.96842   0.96956   0.75001   0.00000  Uiso   1.00
O33    O     0.93645   0.94090   0.75003   0.00000  Uiso   1.00
N2     N     0.25000   0.25000   0.60227   0.00000  Uiso   1.00
N5     N     0.18848   0.14768   0.50000   0.00000  Uiso   1.00
Fe1    Ni    0.25000   0.25000   0.50000   0.00000  Uiso   1.00
Fe5    Fe    0.09959  -0.00000   0.75000   0.00000  Uiso   1.00
C193   C     1.00000   0.93870   0.75000   0.00000  Uiso   1.00
H65    H     1.00000   0.89149   0.75000   0.00000  Uiso   1.00
loop_
_geom_bond_atom_site_label_1
_geom_bond_atom_site_label_2
_geom_bond_distance
_geom_bond_site_symmetry_2
_ccdc_geom_bond_type
C1     C2      1.411   .     A
C1     C6      1.394   .     A
C1     H1      1.084   .     S
C2     C3      1.432   .     A
C2     C33     1.404   6_557 A
C3     C4      1.411   .     A
C3     C36     1.404   6_557 A
C4     C5      1.394   .     A
C4     H2      1.084   .     S
C5     C6      1.359   .     A
C5     C8      1.377   .     A
C6     C7      1.377   .     A
C7     N1      1.359   .     A
C7     N5      1.338   10    A
N1     C8      1.359   .     A
N1     Fe1     1.895   .     S
C8     N2      1.338   .     A
C33    C2      1.404   6_557 A
C33    C34     1.397   .     A
C33    H9      1.084   .     S
C34    C35     1.394   .     A
C34    O1      1.388   .     S
C35    C36     1.397   .     A
C35    O2      1.388   .     S
C36    C3      1.404   6_557 A
C36    H10     1.084   .     S
O1     Fe5     1.931   13_557 S
O2     Fe5     1.931   13_557 S
C194   C193    1.399   .     A
C194   C194    1.396   4_576 A
C194   O33     1.388   .     S
O33    Fe5     1.932   2_665 S
N2     C8      1.338   10    A
N5     C7      1.338   10    A
N5     C7      1.338   13_556 A
Fe1    N1      1.895   6_556 S
Fe1    N1      1.895   10    S
Fe1    N1      1.895   13_556 S
Fe5    O2      1.931   13_557 S
Fe5    O2      1.931   16_544 S
Fe5    O1      1.931   16_544 S
Fe5    O1      1.931   13_557 S
Fe5    O33     1.932   2_665 S
Fe5    O33     1.932   3_646 S
C193   C194    1.399   3_756 A
C193   H65     1.083   .     S
