data_sur-PcM_O-Feoct
_audit_creation_date              2021-11-06
_audit_creation_method            'Materials Studio'
_symmetry_space_group_name_H-M    'CCCM'
_symmetry_Int_Tables_number       66
_symmetry_cell_setting            orthorhombic
loop_
_symmetry_equiv_pos_as_xyz
  x,y,z
  -x,-y,z
  -x,y,-z+1/2
  x,-y,-z+1/2
  -x,-y,-z
  x,y,-z
  x,-y,z+1/2
  -x,y,z+1/2
  x+1/2,y+1/2,z
  -x+1/2,-y+1/2,z
  -x+1/2,y+1/2,-z+1/2
  x+1/2,-y+1/2,-z+1/2
  -x+1/2,-y+1/2,-z
  x+1/2,y+1/2,-z
  x+1/2,-y+1/2,z+1/2
  -x+1/2,y+1/2,z+1/2
_cell_length_a                    33.3818
_cell_length_b                    18.0479
_cell_length_c                    25.6031
_cell_angle_alpha                 90.0000
_cell_angle_beta                  90.0000
_cell_angle_gamma                 90.0000
loop_
_atom_site_label
_atom_site_type_symbol
_atom_site_fract_x
_atom_site_fract_y
_atom_site_fract_z
_atom_site_U_iso_or_equiv
_atom_site_adp_type
_atom_site_occupancy
C1     C     0.35007   0.43406   0.60552   0.00000  Uiso   1.00
C2     C     0.35749   0.44761   0.65874   0.00000  Uiso   1.00
C3     C     0.33641   0.40861   0.69761   0.00000  Uiso   1.00
C4     C     0.30745   0.35538   0.68400   0.00000  Uiso   1.00
C5     C     0.30074   0.34321   0.63084   0.00000  Uiso   1.00
C6     C     0.32117   0.38087   0.59325   0.00000  Uiso   1.00
C7     C     0.30714   0.35513   0.54606   0.00000  Uiso   1.00
N1     N     0.27847   0.30236   0.55235   0.00000  Uiso   1.00
C8     C     0.27507   0.29604   0.60508   0.00000  Uiso   1.00
H1     H     0.36613   0.46372   0.57532   0.00000  Uiso   1.00
O1     O     0.38564   0.49954   0.67450   0.00000  Uiso   1.00
O2     O     0.34504   0.42422   0.74946   0.00000  Uiso   1.00
H2     H     0.29106   0.32510   0.71359   0.00000  Uiso   1.00
C130   C     0.96384   0.96133   0.75001   0.00000  Uiso   1.00
O33    O     0.92723   0.92492   0.75004   0.00000  Uiso   1.00
N2     N     0.25000   0.25000   0.62976   0.00000  Uiso   1.00
N5     N     0.17944   0.12016   0.50000   0.00000  Uiso   1.00
Fe1    Ni    0.25000   0.25000   0.50000   0.00000  Uiso   1.00
Fe5    Fe    0.11404   0.00000   0.75000   0.00000  Uiso   1.00
C129   C     0.00000   0.92212   0.75000   0.00000  Uiso   1.00
H33    H     0.00000   0.86214   0.75000   0.00000  Uiso   1.00
loop_
_geom_bond_atom_site_label_1
_geom_bond_atom_site_label_2
_geom_bond_distance
_geom_bond_site_symmetry_2
_ccdc_geom_bond_type
C1     C2      1.407   .     A
C1     C6      1.397   .     A
C1     H1      1.083   .     S
C2     C3      1.408   .     A
C2     O1      1.387   .     S
C3     C4      1.407   .     A
C3     O2      1.387   .     S
C4     C5      1.397   .     A
C4     H2      1.083   .     S
C5     C6      1.361   .     A
C5     C8      1.376   .     A
C6     C7      1.376   .     A
C7     N1      1.360   .     A
C7     N5      1.338   10    A
N1     C8      1.360   .     A
N1     Fe1     1.895   .     S
C8     N2      1.338   .     A
O1     Fe5     1.933   10    S
O2     Fe5     1.933   10    S
C130   C129    1.399   1_655 A
C130   C130    1.396   4_576 A
C130   O33     1.388   .     S
O33    Fe5     1.932   2_665 S
N2     C8      1.338   10    A
N5     C7      1.338   10    A
N5     C7      1.338   13_556 A
Fe1    N1      1.895   10    S
Fe1    N1      1.895   13_556 S
Fe1    N1      1.895   6_556 S
Fe5    O2      1.933   10    S
Fe5    O2      1.933   11_546 S
Fe5    O1      1.933   10    S
Fe5    O1      1.933   11_546 S
Fe5    O33     1.932   2_665 S
Fe5    O33     1.932   3_646 S
C129   C130    1.399   1_455 A
C129   C130    1.399   3_656 A
C129   H33     1.083   .     S
