data_sur-spacer-PcM_O-Feoct
_audit_creation_date              2021-11-06
_audit_creation_method            'Materials Studio'
_symmetry_space_group_name_H-M    'CCCM'
_symmetry_Int_Tables_number       66
_symmetry_cell_setting            orthorhombic
loop_
_symmetry_equiv_pos_as_xyz
  x,y,z
  -x,-y,z
  -x,y,-z+1/2
  x,-y,-z+1/2
  -x,-y,-z
  x,y,-z
  x,-y,z+1/2
  -x,y,z+1/2
  x+1/2,y+1/2,z
  -x+1/2,-y+1/2,z
  -x+1/2,y+1/2,-z+1/2
  x+1/2,-y+1/2,-z+1/2
  -x+1/2,-y+1/2,-z
  x+1/2,y+1/2,-z
  x+1/2,-y+1/2,z+1/2
  -x+1/2,y+1/2,z+1/2
_cell_length_a                    48.1596
_cell_length_b                    32.9457
_cell_length_c                    46.5908
_cell_angle_alpha                 90.0000
_cell_angle_beta                  90.0000
_cell_angle_gamma                 90.0000
loop_
_atom_site_label
_atom_site_type_symbol
_atom_site_fract_x
_atom_site_fract_y
_atom_site_fract_z
_atom_site_U_iso_or_equiv
_atom_site_adp_type
_atom_site_occupancy
C1     C     0.31918   0.35120   0.55801   0.00000  Uiso   1.00
C2     C     0.32412   0.35841   0.58732   0.00000  Uiso   1.00
C3     C     0.30971   0.33733   0.60839   0.00000  Uiso   1.00
C4     C     0.28967   0.30802   0.60117   0.00000  Uiso   1.00
C5     C     0.28504   0.30125   0.57192   0.00000  Uiso   1.00
C6     C     0.29918   0.32195   0.55123   0.00000  Uiso   1.00
C7     C     0.28950   0.30778   0.52531   0.00000  Uiso   1.00
N1     N     0.26968   0.27878   0.52877   0.00000  Uiso   1.00
C8     C     0.26731   0.27532   0.55776   0.00000  Uiso   1.00
H1     H     0.33036   0.36755   0.54150   0.00000  Uiso   1.00
O1     O     0.34328   0.38643   0.59699   0.00000  Uiso   1.00
O2     O     0.31632   0.34699   0.63640   0.00000  Uiso   1.00
H2     H     0.27838   0.29150   0.61751   0.00000  Uiso   1.00
C129   C     0.09878   0.02883   0.69993   0.00000  Uiso   1.00
C130   C     0.11329   0.05007   0.72115   0.00000  Uiso   1.00
C131   C     0.13318   0.07917   0.71352   0.00000  Uiso   1.00
C132   C     0.13819   0.08648   0.68440   0.00000  Uiso   1.00
C133   C     0.12390   0.06557   0.66351   0.00000  Uiso   1.00
C134   C     0.10399   0.03644   0.67084   0.00000  Uiso   1.00
O33    O     0.07930   0.00028   0.70852   0.00000  Uiso   1.00
O34    O     0.10741   0.04151   0.74966   0.00000  Uiso   1.00
H33    H     0.14447   0.09570   0.72986   0.00000  Uiso   1.00
O35    O     0.15737   0.11453   0.67482   0.00000  Uiso   1.00
O36    O     0.13045   0.07515   0.63546   0.00000  Uiso   1.00
H34    H     0.09282   0.02009   0.65433   0.00000  Uiso   1.00
Fe13   Cu    0.15706   0.11407   0.63591   0.00000  Uiso   1.00
C226   C     0.97493   0.97881   0.75001   0.00000  Uiso   1.00
O97    O     0.94956   0.95887   0.75002   0.00000  Uiso   1.00
N2     N     0.25000   0.25000   0.57132   0.00000  Uiso   1.00
N5     N     0.20123   0.17866   0.50000   0.00000  Uiso   1.00
Fe1    Ni    0.25000   0.25000   0.50000   0.00000  Uiso   1.00
Fe5    Fe    0.07905   0.00000   0.75000   0.00000  Uiso   1.00
C225   C     1.00000   0.95734   0.75000   0.00000  Uiso   1.00
H65    H     1.00000   0.92448   0.75000   0.00000  Uiso   1.00
loop_
_geom_bond_atom_site_label_1
_geom_bond_atom_site_label_2
_geom_bond_distance
_geom_bond_site_symmetry_2
_ccdc_geom_bond_type
C1     C2      1.406   .     A
C1     C6      1.399   .     A
C1     H1      1.082   .     S
C2     C3      1.388   .     A
C2     O1      1.381   .     S
C3     C4      1.406   .     A
C3     O2      1.381   .     S
C4     C5      1.399   .     A
C4     H2      1.082   .     S
C5     C6      1.363   .     A
C5     C8      1.376   .     A
C6     C7      1.376   .     A
C7     N1      1.360   .     A
C7     N5      1.338   10    A
N1     C8      1.360   .     A
N1     Fe1     1.896   .     S
C8     N2      1.338   .     A
O1     Fe13    1.814   10    S
O2     Fe13    1.814   10    S
C129   C130    1.398   .     A
C129   C134    1.401   .     A
C129   O33     1.387   .     S
C130   C131    1.401   .     A
C130   O34     1.387   .     S
C131   C132    1.399   .     A
C131   H33     1.082   .     S
C132   C133    1.377   .     A
C132   O35     1.381   .     S
C133   C134    1.399   .     A
C133   O36     1.381   .     S
C134   H34     1.082   .     S
O33    Fe5     1.933   .     S
O34    Fe5     1.933   .     S
O35    Fe13    1.813   .     S
O36    Fe13    1.813   .     S
Fe13   O2      1.814   10    S
Fe13   O1      1.814   10    S
C226   C225    1.399   .     A
C226   C226    1.396   4_576 A
C226   O97     1.388   .     S
O97    Fe5     1.932   2_665 S
N2     C8      1.338   10    A
N5     C7      1.338   10    A
N5     C7      1.338   13_556 A
Fe1    N1      1.896   10    S
Fe1    N1      1.896   13_556 S
Fe1    N1      1.896   6_556 S
Fe5    O33     1.933   4_556 S
Fe5    O34     1.933   4_556 S
Fe5    O97     1.932   2_665 S
Fe5    O97     1.932   3_646 S
C225   C226    1.399   3_756 A
C225   H65     1.083   .     S
