data_sxc-d_Feoct_DHBQ
_audit_creation_date              2023-08-06
_audit_creation_method            'Materials Studio'
_symmetry_space_group_name_H-M    'P1'
_symmetry_Int_Tables_number       1
_symmetry_cell_setting            triclinic
loop_
_symmetry_equiv_pos_as_xyz
  x,y,z
_cell_length_a                    18.4152
_cell_length_b                    18.4161
_cell_length_c                    46.4710
_cell_angle_alpha                 90.0000
_cell_angle_beta                  90.0000
_cell_angle_gamma                 120.0020
loop_
_atom_site_label
_atom_site_type_symbol
_atom_site_fract_x
_atom_site_fract_y
_atom_site_fract_z
_atom_site_U_iso_or_equiv
_atom_site_adp_type
_atom_site_occupancy
Fe1    Fe    0.50001   0.00001   0.47142   0.00000  Uiso   1.00
Fe2    Fe    0.50002   0.50003   0.13809   0.00000  Uiso   1.00
Fe3    Fe    0.00000   0.50003   0.80475   0.00000  Uiso   1.00
Fe4    Fe    0.00002   0.50003   0.96462   0.00000  Uiso   1.00
Fe5    Fe    0.50001   0.00002   0.63129   0.00000  Uiso   1.00
Fe6    Fe    0.50002   0.50002   0.29795   0.00000  Uiso   1.00
Fe7    Fe    0.61701   0.23402   0.05136   0.00000  Uiso   1.00
Fe8    Fe    0.38301   0.61702   0.71802   0.00000  Uiso   1.00
Fe9    Fe    0.76601   0.38301   0.38469   0.00000  Uiso   1.00
Fe10   Fe    0.38303   0.76604   0.05136   0.00000  Uiso   1.00
Fe11   Fe    0.61699   0.38302   0.71802   0.00000  Uiso   1.00
Fe12   Fe    0.23402   0.61701   0.38469   0.00000  Uiso   1.00
C1     C     0.50002   1.00003   0.08258   0.00000  Uiso   1.00
C2     C     0.54003   0.07558   0.06717   0.00000  Uiso   1.00
C3     C     0.53555   0.07558   0.03554   0.00000  Uiso   1.00
C4     C     0.50002   0.00003   0.02014   0.00000  Uiso   1.00
C5     C     0.46449   0.92448   0.03554   0.00000  Uiso   1.00
C6     C     0.46001   0.92448   0.06717   0.00000  Uiso   1.00
H1     H     0.50002   1.00003   0.10588   0.00000  Uiso   1.00
O1     O     0.58057   0.14718   0.07916   0.00000  Uiso   1.00
O2     O     0.56660   0.14718   0.02356   0.00000  Uiso   1.00
H2     H     0.50002   0.00003   0.99683   0.00000  Uiso   1.00
O3     O     0.43343   0.85288   0.02356   0.00000  Uiso   1.00
O4     O     0.41947   0.85288   0.07916   0.00000  Uiso   1.00
C7     C     0.49999   0.50001   0.68680   0.00000  Uiso   1.00
C8     C     0.45998   0.53555   0.70220   0.00000  Uiso   1.00
C9     C     0.46447   0.54003   0.73383   0.00000  Uiso   1.00
C10    C     0.49999   0.50001   0.74924   0.00000  Uiso   1.00
C11    C     0.53552   0.45999   0.73383   0.00000  Uiso   1.00
C12    C     0.54001   0.46448   0.70220   0.00000  Uiso   1.00
H3     H     0.49999   0.50001   0.66350   0.00000  Uiso   1.00
O5     O     0.41945   0.56661   0.69022   0.00000  Uiso   1.00
O6     O     0.43341   0.58057   0.74582   0.00000  Uiso   1.00
H4     H     0.49999   0.50001   0.77254   0.00000  Uiso   1.00
O7     O     0.56658   0.41946   0.74582   0.00000  Uiso   1.00
O8     O     0.58054   0.43341   0.69022   0.00000  Uiso   1.00
C13    C     1.00001   0.50001   0.41591   0.00000  Uiso   1.00
C14    C     0.07557   0.53554   0.40050   0.00000  Uiso   1.00
C15    C     0.07557   0.54003   0.36887   0.00000  Uiso   1.00
C16    C     0.00002   0.50001   0.35347   0.00000  Uiso   1.00
C17    C     0.92446   0.45999   0.36887   0.00000  Uiso   1.00
C18    C     0.92446   0.46447   0.40050   0.00000  Uiso   1.00
H5     H     1.00001   0.50000   0.43921   0.00000  Uiso   1.00
O9     O     0.14717   0.56661   0.41249   0.00000  Uiso   1.00
O10    O     0.14717   0.58056   0.35689   0.00000  Uiso   1.00
H6     H     0.00002   0.50001   0.33016   0.00000  Uiso   1.00
O11    O     0.85286   0.41946   0.35689   0.00000  Uiso   1.00
O12    O     0.85286   0.43341   0.41249   0.00000  Uiso   1.00
C19    C     0.42131   0.00002   0.55136   0.00000  Uiso   1.00
C20    C     0.46403   0.00688   0.57712   0.00000  Uiso   1.00
C21    C     0.53600  -0.00684   0.57712   0.00000  Uiso   1.00
C22    C     0.57871   0.00003   0.55136   0.00000  Uiso   1.00
C23    C     0.54286   0.00689   0.52559   0.00000  Uiso   1.00
C24    C     0.45716  -0.00685   0.52559   0.00000  Uiso   1.00
H7     H     0.36252   0.00001   0.55136   0.00000  Uiso   1.00
O13    O     0.44248   0.02137   0.60152   0.00000  Uiso   1.00
O14    O     0.55754  -0.02133   0.60152   0.00000  Uiso   1.00
H8     H     0.63751   0.00003   0.55136   0.00000  Uiso   1.00
O15    O     0.57889   0.02138   0.50119   0.00000  Uiso   1.00
O16    O     0.42113  -0.02134   0.50119   0.00000  Uiso   1.00
C25    C     0.57872   0.57872   0.21802   0.00000  Uiso   1.00
C26    C     0.53600   0.54287   0.19225   0.00000  Uiso   1.00
C27    C     0.46404   0.45718   0.19225   0.00000  Uiso   1.00
C28    C     0.42132   0.42133   0.21802   0.00000  Uiso   1.00
C29    C     0.45717   0.46404   0.24378   0.00000  Uiso   1.00
C30    C     0.54287   0.53601   0.24378   0.00000  Uiso   1.00
H9     H     0.63751   0.63751   0.21802   0.00000  Uiso   1.00
O17    O     0.55755   0.57891   0.16785   0.00000  Uiso   1.00
O18    O     0.44249   0.42115   0.16785   0.00000  Uiso   1.00
H10    H     0.36253   0.36254   0.21802   0.00000  Uiso   1.00
O19    O     0.42114   0.44250   0.26818   0.00000  Uiso   1.00
O20    O     0.57890   0.55755   0.26818   0.00000  Uiso   1.00
C31    C     0.00001   0.57873   0.88469   0.00000  Uiso   1.00
C32    C     0.00688   0.54288   0.91045   0.00000  Uiso   1.00
C33    C    -0.00685   0.45719   0.91045   0.00000  Uiso   1.00
C34    C     0.00001   0.42134   0.88469   0.00000  Uiso   1.00
C35    C     0.00687   0.46405   0.85892   0.00000  Uiso   1.00
C36    C    -0.00685   0.53601   0.85892   0.00000  Uiso   1.00
H11    H     0.00001   0.63752   0.88469   0.00000  Uiso   1.00
O21    O     0.02137   0.57891   0.93485   0.00000  Uiso   1.00
O22    O    -0.02134   0.42116   0.93485   0.00000  Uiso   1.00
H12    H     0.00001   0.36255   0.88469   0.00000  Uiso   1.00
O23    O     0.02136   0.44251   0.83452   0.00000  Uiso   1.00
O24    O    -0.02135   0.55756   0.83452   0.00000  Uiso   1.00
C37    C     0.32077   0.84984   0.41550   0.00000  Uiso   1.00
C38    C     0.29588   0.76608   0.40868   0.00000  Uiso   1.00
C39    C     0.33771   0.72473   0.42244   0.00000  Uiso   1.00
C40    C     0.39692   0.76434   0.44413   0.00000  Uiso   1.00
C41    C     0.42048   0.84671   0.45124   0.00000  Uiso   1.00
C42    C     0.38489   0.89184   0.43597   0.00000  Uiso   1.00
H13    H     0.29256   0.88183   0.40476   0.00000  Uiso   1.00
O25    O     0.23894   0.72201   0.39032   0.00000  Uiso   1.00
O26    O     0.31698   0.65196   0.41347   0.00000  Uiso   1.00
H14    H     0.42556   0.73251   0.45473   0.00000  Uiso   1.00
O27    O     0.47460   0.88738   0.47048   0.00000  Uiso   1.00
O28    O     0.41591   0.96910   0.44257   0.00000  Uiso   1.00
C43    C     0.47094   0.32078   0.08216   0.00000  Uiso   1.00
C44    C     0.52981   0.29589   0.07535   0.00000  Uiso   1.00
C45    C     0.61299   0.33772   0.08910   0.00000  Uiso   1.00
C46    C     0.63260   0.39693   0.11080   0.00000  Uiso   1.00
C47    C     0.57379   0.42050   0.11791   0.00000  Uiso   1.00
C48    C     0.49307   0.38491   0.10263   0.00000  Uiso   1.00
H15    H     0.41072   0.29257   0.07143   0.00000  Uiso   1.00
O29    O     0.51693   0.23895   0.05699   0.00000  Uiso   1.00
O30    O     0.66503   0.31698   0.08013   0.00000  Uiso   1.00
H16    H     0.69307   0.42557   0.12139   0.00000  Uiso   1.00
O31    O     0.58725   0.47462   0.13714   0.00000  Uiso   1.00
O32    O     0.44683   0.41593   0.10923   0.00000  Uiso   1.00
C49    C     0.15016   0.47095   0.74883   0.00000  Uiso   1.00
C50    C     0.23393   0.52982   0.74201   0.00000  Uiso   1.00
C51    C     0.27529   0.61300   0.75577   0.00000  Uiso   1.00
C52    C     0.23569   0.63261   0.77746   0.00000  Uiso   1.00
C53    C     0.15331   0.57380   0.78457   0.00000  Uiso   1.00
C54    C     0.10817   0.49308   0.76930   0.00000  Uiso   1.00
H17    H     0.11816   0.41074   0.73809   0.00000  Uiso   1.00
O33    O     0.27800   0.51695   0.72365   0.00000  Uiso   1.00
O34    O     0.34807   0.66504   0.74679   0.00000  Uiso   1.00
H18    H     0.26752   0.69308   0.78805   0.00000  Uiso   1.00
O35    O     0.11265   0.58726   0.80381   0.00000  Uiso   1.00
O36    O     0.03091   0.44684   0.77590   0.00000  Uiso   1.00
C55    C     0.60310   0.23569   0.44413   0.00000  Uiso   1.00
C56    C     0.66231   0.27529   0.42243   0.00000  Uiso   1.00
C57    C     0.70414   0.23394   0.40868   0.00000  Uiso   1.00
C58    C     0.67925   0.15018   0.41549   0.00000  Uiso   1.00
C59    C     0.61512   0.10818   0.43596   0.00000  Uiso   1.00
C60    C     0.57954   0.15332   0.45124   0.00000  Uiso   1.00
H19    H     0.57446   0.26751   0.45472   0.00000  Uiso   1.00
O37    O     0.68305   0.34806   0.41346   0.00000  Uiso   1.00
O38    O     0.76108   0.27801   0.39031   0.00000  Uiso   1.00
H20    H     0.70746   0.11818   0.40476   0.00000  Uiso   1.00
O39    O     0.58411   0.03093   0.44257   0.00000  Uiso   1.00
O40    O     0.52542   0.11265   0.47048   0.00000  Uiso   1.00
C61    C     0.36744   0.60313   0.11080   0.00000  Uiso   1.00
C62    C     0.38705   0.66234   0.08910   0.00000  Uiso   1.00
C63    C     0.47023   0.70417   0.07535   0.00000  Uiso   1.00
C64    C     0.52910   0.67927   0.08216   0.00000  Uiso   1.00
C65    C     0.50697   0.61514   0.10263   0.00000  Uiso   1.00
C66    C     0.42625   0.57956   0.11791   0.00000  Uiso   1.00
H21    H     0.30697   0.57449   0.12139   0.00000  Uiso   1.00
O41    O     0.33501   0.68308   0.08013   0.00000  Uiso   1.00
O42    O     0.48310   0.76111   0.05699   0.00000  Uiso   1.00
H22    H     0.58931   0.70748   0.07143   0.00000  Uiso   1.00
O43    O     0.55321   0.58413   0.10923   0.00000  Uiso   1.00
O44    O     0.41279   0.52544   0.13714   0.00000  Uiso   1.00
C67    C     0.84983   0.52910   0.74883   0.00000  Uiso   1.00
C68    C     0.76606   0.47023   0.74201   0.00000  Uiso   1.00
C69    C     0.72471   0.38705   0.75577   0.00000  Uiso   1.00
C70    C     0.76431   0.36745   0.77746   0.00000  Uiso   1.00
C71    C     0.84669   0.42626   0.78458   0.00000  Uiso   1.00
C72    C     0.89183   0.50697   0.76930   0.00000  Uiso   1.00
H23    H     0.88183   0.58931   0.73810   0.00000  Uiso   1.00
O45    O     0.72200   0.48309   0.72365   0.00000  Uiso   1.00
O46    O     0.65193   0.33501   0.74680   0.00000  Uiso   1.00
H24    H     0.73248   0.30698   0.78806   0.00000  Uiso   1.00
O47    O     0.88736   0.41280   0.80381   0.00000  Uiso   1.00
O48    O     0.96909   0.55322   0.77590   0.00000  Uiso   1.00
C73    C     0.15019   0.67927   0.02055   0.00000  Uiso   1.00
C74    C     0.23396   0.70417   0.02736   0.00000  Uiso   1.00
C75    C     0.27530   0.66234   0.01361   0.00000  Uiso   1.00
C76    C     0.23571   0.60314   0.99191   0.00000  Uiso   1.00
C77    C     0.15333   0.57957   0.98480   0.00000  Uiso   1.00
C78    C     0.10819   0.61515   1.00008   0.00000  Uiso   1.00
H25    H     0.11818   0.70748   0.03128   0.00000  Uiso   1.00
O49    O     0.27802   0.76110   0.04573   0.00000  Uiso   1.00
O50    O     0.34809   0.68308   0.02258   0.00000  Uiso   1.00
H26    H     0.26753   0.57450   0.98132   0.00000  Uiso   1.00
O51    O     0.11266   0.52545   0.96556   0.00000  Uiso   1.00
O52    O     0.03093   0.58413   0.99348   0.00000  Uiso   1.00
C79    C     0.47092   0.15018   0.68721   0.00000  Uiso   1.00
C80    C     0.52979   0.23395   0.69403   0.00000  Uiso   1.00
C81    C     0.61297   0.27530   0.68027   0.00000  Uiso   1.00
C82    C     0.63258   0.23570   0.65858   0.00000  Uiso   1.00
C83    C     0.57378   0.15333   0.65147   0.00000  Uiso   1.00
C84    C     0.49306   0.10819   0.66675   0.00000  Uiso   1.00
H27    H     0.41071   0.11817   0.69795   0.00000  Uiso   1.00
O53    O     0.51691   0.27801   0.71239   0.00000  Uiso   1.00
O54    O     0.66501   0.34808   0.68924   0.00000  Uiso   1.00
H28    H     0.69306   0.26753   0.64799   0.00000  Uiso   1.00
O55    O     0.58724   0.11266   0.63223   0.00000  Uiso   1.00
O56    O     0.44682   0.03092   0.66015   0.00000  Uiso   1.00
C85    C     0.39692   0.63260   0.32525   0.00000  Uiso   1.00
C86    C     0.33772   0.61299   0.34694   0.00000  Uiso   1.00
C87    C     0.29589   0.52981   0.36070   0.00000  Uiso   1.00
C88    C     0.32078   0.47095   0.35388   0.00000  Uiso   1.00
C89    C     0.38491   0.49308   0.33341   0.00000  Uiso   1.00
C90    C     0.42049   0.57379   0.31813   0.00000  Uiso   1.00
H29    H     0.42557   0.69307   0.31466   0.00000  Uiso   1.00
O57    O     0.31698   0.66503   0.35591   0.00000  Uiso   1.00
O58    O     0.23895   0.51694   0.37906   0.00000  Uiso   1.00
H30    H     0.29257   0.41074   0.36461   0.00000  Uiso   1.00
O59    O     0.41592   0.44683   0.32681   0.00000  Uiso   1.00
O60    O     0.47461   0.58725   0.29890   0.00000  Uiso   1.00
C91    C     0.84985   0.32079   0.02055   0.00000  Uiso   1.00
C92    C     0.76608   0.29589   0.02736   0.00000  Uiso   1.00
C93    C     0.72473   0.33772   0.01361   0.00000  Uiso   1.00
C94    C     0.76433   0.39692   0.99192   0.00000  Uiso   1.00
C95    C     0.84671   0.42049   0.98480   0.00000  Uiso   1.00
C96    C     0.89184   0.38492   1.00008   0.00000  Uiso   1.00
H31    H     0.88185   0.29259   0.03128   0.00000  Uiso   1.00
O61    O     0.72202   0.23896   0.04573   0.00000  Uiso   1.00
O62    O     0.65195   0.31698   0.02258   0.00000  Uiso   1.00
H32    H     0.73250   0.42556   0.98132   0.00000  Uiso   1.00
O63    O     0.88737   0.47461   0.96556   0.00000  Uiso   1.00
O64    O     0.96911   0.41594   0.99348   0.00000  Uiso   1.00
C97    C     0.36743   0.76434   0.65858   0.00000  Uiso   1.00
C98    C     0.38703   0.72474   0.68027   0.00000  Uiso   1.00
C99    C     0.47022   0.76609   0.69402   0.00000  Uiso   1.00
C100   C     0.52909   0.84985   0.68721   0.00000  Uiso   1.00
C101   C     0.50695   0.89185   0.66674   0.00000  Uiso   1.00
C102   C     0.42624   0.84671   0.65147   0.00000  Uiso   1.00
H33    H     0.30696   0.73251   0.64798   0.00000  Uiso   1.00
O65    O     0.33499   0.65196   0.68924   0.00000  Uiso   1.00
O66    O     0.48309   0.72202   0.71239   0.00000  Uiso   1.00
H34    H     0.58930   0.88185   0.69795   0.00000  Uiso   1.00
O67    O     0.55320   0.96911   0.66015   0.00000  Uiso   1.00
O68    O     0.41278   0.88738   0.63223   0.00000  Uiso   1.00
C103   C     0.67926   0.52909   0.35388   0.00000  Uiso   1.00
C104   C     0.70415   0.47022   0.36069   0.00000  Uiso   1.00
C105   C     0.66232   0.38704   0.34694   0.00000  Uiso   1.00
C106   C     0.60311   0.36744   0.32524   0.00000  Uiso   1.00
C107   C     0.57955   0.42625   0.31813   0.00000  Uiso   1.00
C108   C     0.61514   0.50696   0.33341   0.00000  Uiso   1.00
H35    H     0.70747   0.58930   0.36461   0.00000  Uiso   1.00
O69    O     0.76109   0.48308   0.37906   0.00000  Uiso   1.00
O70    O     0.68305   0.33500   0.35591   0.00000  Uiso   1.00
H36    H     0.57447   0.30697   0.31465   0.00000  Uiso   1.00
O71    O     0.52543   0.41280   0.29889   0.00000  Uiso   1.00
O72    O     0.58412   0.55321   0.32681   0.00000  Uiso   1.00
loop_
_geom_bond_atom_site_label_1
_geom_bond_atom_site_label_2
_geom_bond_distance
_geom_bond_site_symmetry_2
_ccdc_geom_bond_type
Fe1    O15     1.899   .     S
Fe1    O16     1.899   .     S
Fe1    O27     1.885   1_545 S
Fe1    O28     1.908   1_545 S
Fe1    O39     1.908   .     S
Fe1    O40     1.885   .     S
Fe2    O17     1.899   .     S
Fe2    O18     1.899   .     S
Fe2    O31     1.885   .     S
Fe2    O32     1.908   .     S
Fe2    O43     1.908   .     S
Fe2    O44     1.885   .     S
Fe3    O23     1.899   .     S
Fe3    O24     1.899   .     S
Fe3    O35     1.885   .     S
Fe3    O36     1.908   .     S
Fe3    O47     1.885   1_455 S
Fe3    O48     1.908   1_455 S
Fe4    O21     1.899   .     S
Fe4    O22     1.899   .     S
Fe4    O51     1.885   .     S
Fe4    O52     1.908   .     S
Fe4    O63     1.885   1_455 S
Fe4    O64     1.908   1_455 S
Fe5    O13     1.899   .     S
Fe5    O14     1.899   .     S
Fe5    O55     1.885   .     S
Fe5    O56     1.908   .     S
Fe5    O67     1.908   1_545 S
Fe5    O68     1.885   1_545 S
Fe6    O19     1.899   .     S
Fe6    O20     1.899   .     S
Fe6    O59     1.908   .     S
Fe6    O60     1.885   .     S
Fe6    O71     1.885   .     S
Fe6    O72     1.908   .     S
Fe7    O1      1.898   .     S
Fe7    O2      1.898   .     S
Fe7    O29     1.908   .     S
Fe7    O30     1.885   .     S
Fe7    O61     1.908   .     S
Fe7    O62     1.885   .     S
Fe8    O5      1.898   .     S
Fe8    O6      1.898   .     S
Fe8    O33     1.908   .     S
Fe8    O34     1.885   .     S
Fe8    O65     1.885   .     S
Fe8    O66     1.908   .     S
Fe9    O11     1.898   .     S
Fe9    O12     1.898   .     S
Fe9    O37     1.885   .     S
Fe9    O38     1.908   .     S
Fe9    O69     1.908   .     S
Fe9    O70     1.885   .     S
Fe10   O3      1.898   .     S
Fe10   O4      1.898   .     S
Fe10   O41     1.885   .     S
Fe10   O42     1.908   .     S
Fe10   O49     1.908   .     S
Fe10   O50     1.885   .     S
Fe11   O7      1.898   .     S
Fe11   O8      1.898   .     S
Fe11   O45     1.908   .     S
Fe11   O46     1.885   .     S
Fe11   O53     1.908   .     S
Fe11   O54     1.885   .     S
Fe12   O9      1.898   .     S
Fe12   O10     1.898   .     S
Fe12   O25     1.908   .     S
Fe12   O26     1.885   .     S
Fe12   O57     1.885   .     S
Fe12   O58     1.908   .     S
C1     C2      1.402   1_565 A
C1     C6      1.402   .     A
C1     H1      1.083   .     S
C2     C1      1.402   1_545 A
C2     C3      1.472   .     S
C2     O1      1.273   .     A
C3     C4      1.402   .     A
C3     O2      1.273   .     A
C4     C5      1.402   1_545 A
C4     H2      1.083   1_554 S
C5     C4      1.402   1_565 A
C5     C6      1.472   .     S
C5     O3      1.273   .     A
C6     O4      1.273   .     A
H2     C4      1.083   1_556 S
C7     C8      1.402   .     A
C7     C12     1.402   .     A
C7     H3      1.083   .     S
C8     C9      1.472   .     S
C8     O5      1.273   .     A
C9     C10     1.402   .     A
C9     O6      1.273   .     A
C10    C11     1.402   .     A
C10    H4      1.083   .     S
C11    C12     1.472   .     S
C11    O7      1.273   .     A
C12    O8      1.273   .     A
C13    C14     1.402   1_655 A
C13    C18     1.402   .     A
C13    H5      1.083   .     S
C14    C13     1.402   1_455 A
C14    C15     1.472   .     S
C14    O9      1.273   .     A
C15    C16     1.402   .     A
C15    O10     1.273   .     A
C16    C17     1.402   1_455 A
C16    H6      1.083   .     S
C17    C16     1.402   1_655 A
C17    C18     1.472   .     S
C17    O11     1.273   .     A
C18    O12     1.273   .     A
C19    C20     1.403   .     A
C19    C24     1.403   .     A
C19    H7      1.083   .     S
C20    C21     1.468   .     S
C20    O13     1.273   .     A
C21    C22     1.403   .     A
C21    O14     1.273   .     A
C22    C23     1.403   .     A
C22    H8      1.083   .     S
C23    C24     1.468   .     S
C23    O15     1.273   .     A
C24    O16     1.273   .     A
C25    C26     1.403   .     A
C25    C30     1.403   .     A
C25    H9      1.083   .     S
C26    C27     1.468   .     S
C26    O17     1.273   .     A
C27    C28     1.403   .     A
C27    O18     1.273   .     A
C28    C29     1.403   .     A
C28    H10     1.083   .     S
C29    C30     1.468   .     S
C29    O19     1.273   .     A
C30    O20     1.273   .     A
C31    C32     1.403   .     A
C31    C36     1.403   .     A
C31    H11     1.083   .     S
C32    C33     1.468   .     S
C32    O21     1.273   .     A
C33    C34     1.403   .     A
C33    O22     1.273   .     A
C34    C35     1.403   .     A
C34    H12     1.083   .     S
C35    C36     1.468   .     S
C35    O23     1.273   .     A
C36    O24     1.273   .     A
C37    C38     1.408   .     A
C37    C42     1.409   .     A
C37    H13     1.083   .     S
C38    C39     1.473   .     S
C38    O25     1.279   .     A
C39    C40     1.393   .     A
C39    O26     1.267   .     A
C40    C41     1.393   .     A
C40    H14     1.083   .     S
C41    C42     1.473   .     S
C41    O27     1.268   .     A
C42    O28     1.278   .     A
O27    Fe1     1.885   1_565 S
O28    Fe1     1.908   1_565 S
C43    C44     1.408   .     A
C43    C48     1.409   .     A
C43    H15     1.083   .     S
C44    C45     1.473   .     S
C44    O29     1.279   .     A
C45    C46     1.393   .     A
C45    O30     1.267   .     A
C46    C47     1.393   .     A
C46    H16     1.083   .     S
C47    C48     1.473   .     S
C47    O31     1.268   .     A
C48    O32     1.278   .     A
C49    C50     1.408   .     A
C49    C54     1.409   .     A
C49    H17     1.083   .     S
C50    C51     1.473   .     S
C50    O33     1.279   .     A
C51    C52     1.393   .     A
C51    O34     1.267   .     A
C52    C53     1.393   .     A
C52    H18     1.083   .     S
C53    C54     1.473   .     S
C53    O35     1.268   .     A
C54    O36     1.278   .     A
C55    C56     1.393   .     A
C55    C60     1.393   .     A
C55    H19     1.083   .     S
C56    C57     1.473   .     S
C56    O37     1.267   .     A
C57    C58     1.408   .     A
C57    O38     1.279   .     A
C58    C59     1.409   .     A
C58    H20     1.083   .     S
C59    C60     1.473   .     S
C59    O39     1.278   .     A
C60    O40     1.268   .     A
C61    C62     1.393   .     A
C61    C66     1.393   .     A
C61    H21     1.083   .     S
C62    C63     1.473   .     S
C62    O41     1.267   .     A
C63    C64     1.408   .     A
C63    O42     1.279   .     A
C64    C65     1.409   .     A
C64    H22     1.083   .     S
C65    C66     1.473   .     S
C65    O43     1.278   .     A
C66    O44     1.268   .     A
C67    C68     1.408   .     A
C67    C72     1.409   .     A
C67    H23     1.083   .     S
C68    C69     1.473   .     S
C68    O45     1.279   .     A
C69    C70     1.393   .     A
C69    O46     1.267   .     A
C70    C71     1.393   .     A
C70    H24     1.083   .     S
C71    C72     1.473   .     S
C71    O47     1.268   .     A
C72    O48     1.278   .     A
O47    Fe3     1.885   1_655 S
O48    Fe3     1.908   1_655 S
C73    C74     1.408   .     A
C73    C78     1.409   1_554 A
C73    H25     1.083   .     S
C74    C75     1.473   .     S
C74    O49     1.279   .     A
C75    C76     1.393   1_554 A
C75    O50     1.267   .     A
C76    C75     1.393   1_556 A
C76    C77     1.393   .     A
C76    H26     1.083   .     S
C77    C78     1.473   .     S
C77    O51     1.268   .     A
C78    C73     1.409   1_556 A
C78    O52     1.278   .     A
C79    C80     1.408   .     A
C79    C84     1.409   .     A
C79    H27     1.083   .     S
C80    C81     1.473   .     S
C80    O53     1.279   .     A
C81    C82     1.393   .     A
C81    O54     1.267   .     A
C82    C83     1.393   .     A
C82    H28     1.083   .     S
C83    C84     1.473   .     S
C83    O55     1.268   .     A
C84    O56     1.278   .     A
C85    C86     1.393   .     A
C85    C90     1.393   .     A
C85    H29     1.083   .     S
C86    C87     1.473   .     S
C86    O57     1.267   .     A
C87    C88     1.408   .     A
C87    O58     1.279   .     A
C88    C89     1.409   .     A
C88    H30     1.083   .     S
C89    C90     1.473   .     S
C89    O59     1.278   .     A
C90    O60     1.268   .     A
C91    C92     1.408   .     A
C91    C96     1.409   1_554 A
C91    H31     1.083   .     S
C92    C93     1.473   .     S
C92    O61     1.279   .     A
C93    C94     1.393   1_554 A
C93    O62     1.267   .     A
C94    C93     1.393   1_556 A
C94    C95     1.393   .     A
C94    H32     1.083   .     S
C95    C96     1.473   .     S
C95    O63     1.268   .     A
C96    C91     1.409   1_556 A
C96    O64     1.278   .     A
O63    Fe4     1.885   1_655 S
O64    Fe4     1.908   1_655 S
C97    C98     1.393   .     A
C97    C102    1.393   .     A
C97    H33     1.083   .     S
C98    C99     1.473   .     S
C98    O65     1.267   .     A
C99    C100    1.408   .     A
C99    O66     1.279   .     A
C100   C101    1.409   .     A
C100   H34     1.083   .     S
C101   C102    1.473   .     S
C101   O67     1.278   .     A
C102   O68     1.268   .     A
O67    Fe5     1.908   1_565 S
O68    Fe5     1.885   1_565 S
C103   C104    1.408   .     A
C103   C108    1.409   .     A
C103   H35     1.083   .     S
C104   C105    1.473   .     S
C104   O69     1.279   .     A
C105   C106    1.393   .     A
C105   O70     1.267   .     A
C106   C107    1.393   .     A
C106   H36     1.083   .     S
C107   C108    1.473   .     S
C107   O71     1.268   .     A
C108   O72     1.278   .     A
