data_tfc-TN_O-PcM_O-Zntet
_audit_creation_date              2021-11-06
_audit_creation_method            'Materials Studio'
_symmetry_space_group_name_H-M    'P1'
_symmetry_Int_Tables_number       1
_symmetry_cell_setting            triclinic
loop_
_symmetry_equiv_pos_as_xyz
  x,y,z
_cell_length_a                    29.8583
_cell_length_b                    86.5102
_cell_length_c                    17.9070
_cell_angle_alpha                 89.9897
_cell_angle_beta                  90.2657
_cell_angle_gamma                 89.9609
loop_
_atom_site_label
_atom_site_type_symbol
_atom_site_fract_x
_atom_site_fract_y
_atom_site_fract_z
_atom_site_U_iso_or_equiv
_atom_site_adp_type
_atom_site_occupancy
C1     C     0.95200   0.30990  -0.00060   0.00000  Uiso   1.00
C2     C     0.97603   0.29562   0.00032   0.00000  Uiso   1.00
C3     C     0.02386   0.29564  -0.00100   0.00000  Uiso   1.00
C4     C     0.04771   0.30993   0.00141   0.00000  Uiso   1.00
C5     C     0.02371   0.32424   0.00037   0.00000  Uiso   1.00
C6     C     0.97588   0.32423   0.00047   0.00000  Uiso   1.00
C7     C     0.09534   0.30944   0.00533   0.00000  Uiso   1.00
C8     C     0.11902   0.29555   0.00268   0.00000  Uiso   1.00
C9     C     0.09553   0.28152  -0.00332   0.00000  Uiso   1.00
C10    C     0.04884   0.28166  -0.00562   0.00000  Uiso   1.00
C11    C     0.90436   0.30938  -0.00314   0.00000  Uiso   1.00
C12    C     0.88087   0.29545  -0.00183   0.00000  Uiso   1.00
C13    C     0.90454   0.28141   0.00189   0.00000  Uiso   1.00
C14    C     0.95122   0.28159   0.00368   0.00000  Uiso   1.00
C15    C     0.95320   0.33871   0.00234   0.00000  Uiso   1.00
C16    C     0.97624   0.35274   0.00131   0.00000  Uiso   1.00
C17    C     0.02319   0.35275  -0.00098   0.00000  Uiso   1.00
C18    C     0.04629   0.33871  -0.00198   0.00000  Uiso   1.00
C19    C     0.04660   0.36686  -0.00196   0.00000  Uiso   1.00
C20    C     0.02323   0.38084  -0.00083   0.00000  Uiso   1.00
C21    C     0.97604   0.38084   0.00081   0.00000  Uiso   1.00
C22    C     0.95274   0.36685   0.00207   0.00000  Uiso   1.00
C23    C     0.11932   0.26746  -0.00652   0.00000  Uiso   1.00
C24    C     0.16601   0.26767  -0.00368   0.00000  Uiso   1.00
C25    C     0.18896   0.28136   0.00214   0.00000  Uiso   1.00
C26    C     0.16621   0.29543   0.00538   0.00000  Uiso   1.00
H1     H     0.11550   0.31965   0.01169   0.00000  Uiso   1.00
H2     H     0.03327   0.27055  -0.01261   0.00000  Uiso   1.00
H3     H     0.88395   0.31958  -0.00706   0.00000  Uiso   1.00
H4     H     0.96695   0.27047   0.00928   0.00000  Uiso   1.00
H5     H     0.91739   0.33964   0.00548   0.00000  Uiso   1.00
H6     H     0.08209   0.33963  -0.00599   0.00000  Uiso   1.00
H7     H     0.08288   0.36705  -0.00333   0.00000  Uiso   1.00
O1     O     0.04619   0.39489  -0.00129   0.00000  Uiso   1.00
O2     O     0.95297   0.39487   0.00116   0.00000  Uiso   1.00
H8     H     0.91647   0.36704   0.00344   0.00000  Uiso   1.00
H9     H     0.10196   0.25650  -0.01079   0.00000  Uiso   1.00
O3     O     0.19170   0.25441  -0.00644   0.00000  Uiso   1.00
O4     O     0.23508   0.28026   0.00453   0.00000  Uiso   1.00
H10    H     0.18510   0.30609   0.00960   0.00000  Uiso   1.00
C27    C     0.88091   0.26732   0.00356   0.00000  Uiso   1.00
C28    C     0.83420   0.26751   0.00155   0.00000  Uiso   1.00
C29    C     0.81110   0.28121  -0.00194   0.00000  Uiso   1.00
C30    C     0.83369   0.29531  -0.00367   0.00000  Uiso   1.00
H11    H     0.89841   0.25635   0.00607   0.00000  Uiso   1.00
O5     O     0.80861   0.25422   0.00293   0.00000  Uiso   1.00
O6     O     0.76500   0.28010  -0.00361   0.00000  Uiso   1.00
H12    H     0.81465   0.30597  -0.00618   0.00000  Uiso   1.00
C31    C     0.95211   0.71005   0.00240   0.00000  Uiso   1.00
C32    C     0.97605   0.72429  -0.00117   0.00000  Uiso   1.00
C33    C     0.02382   0.72427   0.00111   0.00000  Uiso   1.00
C34    C     0.04772   0.71000  -0.00162   0.00000  Uiso   1.00
C35    C     0.02378   0.69570   0.00026   0.00000  Uiso   1.00
C36    C     0.97596   0.69573   0.00052   0.00000  Uiso   1.00
C37    C     0.09522   0.71052  -0.00723   0.00000  Uiso   1.00
C38    C     0.11882   0.72444  -0.00404   0.00000  Uiso   1.00
C39    C     0.09530   0.73843   0.00468   0.00000  Uiso   1.00
C40    C     0.04859   0.73824   0.00782   0.00000  Uiso   1.00
C41    C     0.90466   0.71062   0.00878   0.00000  Uiso   1.00
C42    C     0.88109   0.72455   0.00475   0.00000  Uiso   1.00
C43    C     0.90460   0.73848  -0.00553   0.00000  Uiso   1.00
C44    C     0.95130   0.73825  -0.00872   0.00000  Uiso   1.00
C45    C     0.95322   0.68130  -0.00300   0.00000  Uiso   1.00
C46    C     0.97625   0.66724  -0.00157   0.00000  Uiso   1.00
C47    C     0.02323   0.66721   0.00215   0.00000  Uiso   1.00
C48    C     0.04639   0.68123   0.00350   0.00000  Uiso   1.00
C49    C     0.04661   0.65308   0.00382   0.00000  Uiso   1.00
C50    C     0.02323   0.63910   0.00177   0.00000  Uiso   1.00
C51    C     0.97605   0.63914  -0.00132   0.00000  Uiso   1.00
C52    C     0.95276   0.65314  -0.00324   0.00000  Uiso   1.00
C53    C     0.11907   0.75247   0.00941   0.00000  Uiso   1.00
C54    C     0.16576   0.75231   0.00494   0.00000  Uiso   1.00
C55    C     0.18866   0.73868  -0.00404   0.00000  Uiso   1.00
C56    C     0.16594   0.72462  -0.00855   0.00000  Uiso   1.00
H13    H     0.11516   0.70031  -0.01566   0.00000  Uiso   1.00
H14    H     0.03254   0.74920   0.01776   0.00000  Uiso   1.00
H15    H     0.88479   0.70044   0.01849   0.00000  Uiso   1.00
H16    H     0.96735   0.74918  -0.01935   0.00000  Uiso   1.00
H17    H     0.91740   0.68052  -0.00871   0.00000  Uiso   1.00
H18    H     0.08220   0.68038   0.00876   0.00000  Uiso   1.00
H19    H     0.08287   0.65286   0.00632   0.00000  Uiso   1.00
O7     O     0.04619   0.62504   0.00267   0.00000  Uiso   1.00
O8     O     0.95299   0.62510  -0.00236   0.00000  Uiso   1.00
H20    H     0.91650   0.65298  -0.00568   0.00000  Uiso   1.00
H21    H     0.10170   0.76339   0.01591   0.00000  Uiso   1.00
O9     O     0.19153   0.76555   0.00909   0.00000  Uiso   1.00
O10    O     0.23472   0.73982  -0.00814   0.00000  Uiso   1.00
H22    H     0.18485   0.71401  -0.01507   0.00000  Uiso   1.00
C57    C     0.88083   0.75252  -0.01163   0.00000  Uiso   1.00
C58    C     0.83418   0.75241  -0.00663   0.00000  Uiso   1.00
C59    C     0.81132   0.73884   0.00416   0.00000  Uiso   1.00
C60    C     0.83401   0.72478   0.00986   0.00000  Uiso   1.00
H23    H     0.89818   0.76339  -0.01958   0.00000  Uiso   1.00
O11    O     0.80840   0.76565  -0.01181   0.00000  Uiso   1.00
O12    O     0.76531   0.74002   0.00875   0.00000  Uiso   1.00
H24    H     0.81508   0.71422   0.01775   0.00000  Uiso   1.00
C61    C     0.45214   0.80985   0.00173   0.00000  Uiso   1.00
C62    C     0.47606   0.79558  -0.00011   0.00000  Uiso   1.00
C63    C     0.52384   0.79561   0.00230   0.00000  Uiso   1.00
C64    C     0.54761   0.80987  -0.00062   0.00000  Uiso   1.00
C65    C     0.52370   0.82413   0.00183   0.00000  Uiso   1.00
C66    C     0.47598   0.82413  -0.00050   0.00000  Uiso   1.00
C67    C     0.59497   0.80945  -0.00777   0.00000  Uiso   1.00
C68    C     0.61873   0.79557  -0.00548   0.00000  Uiso   1.00
C69    C     0.59550   0.78159   0.00506   0.00000  Uiso   1.00
C70    C     0.54881   0.78169   0.00933   0.00000  Uiso   1.00
C71    C     0.40471   0.80938   0.00756   0.00000  Uiso   1.00
C72    C     0.38109   0.79548   0.00517   0.00000  Uiso   1.00
C73    C     0.40455   0.78148  -0.00369   0.00000  Uiso   1.00
C74    C     0.45129   0.78162  -0.00655   0.00000  Uiso   1.00
C75    C     0.45344   0.83854  -0.00684   0.00000  Uiso   1.00
C76    C     0.47651   0.85257  -0.00378   0.00000  Uiso   1.00
C77    C     0.52324   0.85255   0.00572   0.00000  Uiso   1.00
C78    C     0.54627   0.83852   0.00837   0.00000  Uiso   1.00
C79    C     0.54654   0.86663   0.01120   0.00000  Uiso   1.00
C80    C     0.52343   0.88062   0.00571   0.00000  Uiso   1.00
C81    C     0.47653   0.88065  -0.00380   0.00000  Uiso   1.00
C82    C     0.45330   0.86668  -0.00902   0.00000  Uiso   1.00
C83    C     0.61955   0.76763   0.01029   0.00000  Uiso   1.00
C84    C     0.66611   0.76785   0.00405   0.00000  Uiso   1.00
C85    C     0.68873   0.78145  -0.00723   0.00000  Uiso   1.00
C86    C     0.66573   0.79546  -0.01237   0.00000  Uiso   1.00
H25    H     0.61452   0.81972  -0.01703   0.00000  Uiso   1.00
H26    H     0.53295   0.77073   0.01997   0.00000  Uiso   1.00
H27    H     0.38494   0.81965   0.01566   0.00000  Uiso   1.00
H28    H     0.46736   0.77063  -0.01576   0.00000  Uiso   1.00
H29    H     0.41783   0.83930  -0.01589   0.00000  Uiso   1.00
H30    H     0.58189   0.83924   0.01729   0.00000  Uiso   1.00
H31    H     0.58253   0.86677   0.01930   0.00000  Uiso   1.00
O13    O     0.54642   0.89465   0.00895   0.00000  Uiso   1.00
O14    O     0.45366   0.89470  -0.00753   0.00000  Uiso   1.00
H32    H     0.41731   0.86687  -0.01701   0.00000  Uiso   1.00
H33    H     0.60250   0.75672   0.01885   0.00000  Uiso   1.00
O15    O     0.69200   0.75466   0.00865   0.00000  Uiso   1.00
O16    O     0.73478   0.78034  -0.01234   0.00000  Uiso   1.00
H34    H     0.68426   0.80607  -0.02111   0.00000  Uiso   1.00
C87    C     0.38065   0.76747  -0.00878   0.00000  Uiso   1.00
C88    C     0.33399   0.76768  -0.00394   0.00000  Uiso   1.00
C89    C     0.31118   0.78131   0.00560   0.00000  Uiso   1.00
C90    C     0.33402   0.79535   0.01043   0.00000  Uiso   1.00
H35    H     0.39790   0.75656  -0.01609   0.00000  Uiso   1.00
O17    O     0.30817   0.75447  -0.00807   0.00000  Uiso   1.00
O18    O     0.26509   0.78022   0.00947   0.00000  Uiso   1.00
H36    H     0.31529   0.80597   0.01778   0.00000  Uiso   1.00
C91    C     0.45229   0.21001  -0.00023   0.00000  Uiso   1.00
C92    C     0.47621   0.22428   0.00199   0.00000  Uiso   1.00
C93    C     0.52404   0.22426   0.00052   0.00000  Uiso   1.00
C94    C     0.54793   0.20995   0.00122   0.00000  Uiso   1.00
C95    C     0.52394   0.19566   0.00011   0.00000  Uiso   1.00
C96    C     0.47616   0.19570   0.00173   0.00000  Uiso   1.00
C97    C     0.59555   0.21040   0.00411   0.00000  Uiso   1.00
C98    C     0.61919   0.22430   0.00237   0.00000  Uiso   1.00
C99    C     0.59564   0.23836  -0.00166   0.00000  Uiso   1.00
C100   C     0.54895   0.23825  -0.00310   0.00000  Uiso   1.00
C101   C     0.40476   0.21050  -0.00566   0.00000  Uiso   1.00
C102   C     0.38110   0.22440  -0.00335   0.00000  Uiso   1.00
C103   C     0.40460   0.23842   0.00330   0.00000  Uiso   1.00
C104   C     0.45128   0.23827   0.00636   0.00000  Uiso   1.00
C105   C     0.45347   0.18128   0.00651   0.00000  Uiso   1.00
C106   C     0.47639   0.16721   0.00413   0.00000  Uiso   1.00
C107   C     0.52326   0.16716  -0.00117   0.00000  Uiso   1.00
C108   C     0.54642   0.18117  -0.00344   0.00000  Uiso   1.00
C109   C     0.54658   0.15303  -0.00342   0.00000  Uiso   1.00
C110   C     0.52319   0.13907  -0.00090   0.00000  Uiso   1.00
C111   C     0.47606   0.13911   0.00322   0.00000  Uiso   1.00
C112   C     0.45287   0.15313   0.00630   0.00000  Uiso   1.00
C113   C     0.61939   0.25241  -0.00382   0.00000  Uiso   1.00
C114   C     0.66608   0.25217  -0.00193   0.00000  Uiso   1.00
C115   C     0.68910   0.23846   0.00176   0.00000  Uiso   1.00
C116   C     0.66638   0.22438   0.00405   0.00000  Uiso   1.00
H37    H     0.61574   0.20016   0.00905   0.00000  Uiso   1.00
H38    H     0.53328   0.24939  -0.00867   0.00000  Uiso   1.00
H39    H     0.38482   0.20027  -0.01356   0.00000  Uiso   1.00
H40    H     0.46691   0.24937   0.01367   0.00000  Uiso   1.00
H41    H     0.41781   0.18050   0.01389   0.00000  Uiso   1.00
H42    H     0.58212   0.18024  -0.00942   0.00000  Uiso   1.00
H43    H     0.58279   0.15280  -0.00692   0.00000  Uiso   1.00
O19    O     0.54611   0.12501  -0.00243   0.00000  Uiso   1.00
O20    O     0.45297   0.12509   0.00406   0.00000  Uiso   1.00
H44    H     0.41665   0.15299   0.00985   0.00000  Uiso   1.00
H45    H     0.60200   0.26340  -0.00658   0.00000  Uiso   1.00
O21    O     0.69173   0.26543  -0.00364   0.00000  Uiso   1.00
O22    O     0.73523   0.23953   0.00298   0.00000  Uiso   1.00
H46    H     0.68530   0.21370   0.00679   0.00000  Uiso   1.00
C117   C     0.38084   0.25249   0.00610   0.00000  Uiso   1.00
C118   C     0.33416   0.25229   0.00241   0.00000  Uiso   1.00
C119   C     0.31121   0.23861  -0.00377   0.00000  Uiso   1.00
C120   C     0.33395   0.22453  -0.00694   0.00000  Uiso   1.00
H47    H     0.39820   0.26344   0.01075   0.00000  Uiso   1.00
O23    O     0.30848   0.26556   0.00473   0.00000  Uiso   1.00
O24    O     0.26509   0.23972  -0.00646   0.00000  Uiso   1.00
H48    H     0.31506   0.21388  -0.01169   0.00000  Uiso   1.00
C121   C    -0.00030   0.44939   0.07948   0.00000  Uiso   1.00
C122   C    -0.00037   0.43536   0.03983   0.00000  Uiso   1.00
C123   C    -0.00091   0.43537   0.96016   0.00000  Uiso   1.00
C124   C    -0.00102   0.44941   0.92059   0.00000  Uiso   1.00
C125   C    -0.00078   0.46307   0.96209   0.00000  Uiso   1.00
C126   C    -0.00052   0.46306   0.03806   0.00000  Uiso   1.00
C127   C    -0.00033   0.47832   0.05975   0.00000  Uiso   1.00
N1     N    -0.00036   0.48805   0.00010   0.00000  Uiso   1.00
C128   C    -0.00062   0.47833   0.94048   0.00000  Uiso   1.00
N2     N    -0.00036   0.48280   0.86894   0.00000  Uiso   1.00
C129   C    -0.00005   0.49760   0.84736   0.00000  Uiso   1.00
N3     N    -0.00012   0.50996   0.89428   0.00000  Uiso   1.00
C130   C     0.00013   0.52231   0.84734   0.00000  Uiso   1.00
C131   C     0.00035   0.51784   0.77360   0.00000  Uiso   1.00
C132   C     1.00026   0.50208   0.77361   0.00000  Uiso   1.00
N4     N    -0.00026   0.53186   0.00010   0.00000  Uiso   1.00
C133   C    -0.00015   0.54158   0.94047   0.00000  Uiso   1.00
N5     N     0.00008   0.53711   0.86895   0.00000  Uiso   1.00
C134   C    -0.00030   0.55685   0.96212   0.00000  Uiso   1.00
C135   C    -0.00066   0.55685   0.03808   0.00000  Uiso   1.00
C136   C    -0.00055   0.54158   0.05978   0.00000  Uiso   1.00
C137   C     1.00042   0.49351   0.70738   0.00000  Uiso   1.00
C138   C     1.00048   0.50193   0.64018   0.00000  Uiso   1.00
C139   C     1.00050   0.51797   0.64015   0.00000  Uiso   1.00
C140   C     0.00049   0.52639   0.70733   0.00000  Uiso   1.00
C141   C    -0.00099   0.57051   0.07952   0.00000  Uiso   1.00
C142   C    -0.00086   0.58456   0.03990   0.00000  Uiso   1.00
C143   C    -0.00013   0.58456   0.96025   0.00000  Uiso   1.00
C144   C     0.00001   0.57052   0.92065   0.00000  Uiso   1.00
N6     N    -0.00017   0.50995   0.10594   0.00000  Uiso   1.00
C145   C    -0.00006   0.52230   0.15291   0.00000  Uiso   1.00
N7     N     0.99966   0.53710   0.13127   0.00000  Uiso   1.00
C146   C     0.00022   0.51782   0.22663   0.00000  Uiso   1.00
C147   C     0.00025   0.50206   0.22664   0.00000  Uiso   1.00
C148   C     0.00003   0.49759   0.15290   0.00000  Uiso   1.00
C149   C     0.00037   0.49350   0.29292   0.00000  Uiso   1.00
C150   C     0.00041   0.50191   0.36011   0.00000  Uiso   1.00
C151   C     1.00044   0.51796   0.36008   0.00000  Uiso   1.00
C152   C     1.00040   0.52638   0.29289   0.00000  Uiso   1.00
N8     N    -0.00010   0.48278   0.13127   0.00000  Uiso   1.00
H49    H     0.00001   0.44957   0.13993   0.00000  Uiso   1.00
O25    O     0.00016   0.42129   0.07791   0.00000  Uiso   1.00
O26    O    -0.00127   0.42131   0.92201   0.00000  Uiso   1.00
H50    H    -0.00126   0.44962   0.86013   0.00000  Uiso   1.00
H51    H     1.00047   0.48100   0.70765   0.00000  Uiso   1.00
O27    O     1.00046   0.49494   0.57088   0.00000  Uiso   1.00
O28    O     1.00046   0.52496   0.57082   0.00000  Uiso   1.00
H52    H     0.00053   0.53891   0.70759   0.00000  Uiso   1.00
H53    H     0.99865   0.57033   0.13997   0.00000  Uiso   1.00
O29    O    -0.00145   0.59862   0.07800   0.00000  Uiso   1.00
O30    O     0.00050   0.59863   0.92216   0.00000  Uiso   1.00
H54    H     0.00041   0.57032   0.86020   0.00000  Uiso   1.00
H55    H     0.00038   0.48098   0.29268   0.00000  Uiso   1.00
O31    O     1.00037   0.49493   0.42944   0.00000  Uiso   1.00
O32    O     1.00046   0.52495   0.42940   0.00000  Uiso   1.00
H56    H     1.00050   0.53889   0.29261   0.00000  Uiso   1.00
Ni1    Ni   -0.00023   0.50995   0.00013   0.00000  Uiso   1.00
C153   C     0.50041   0.99347   0.29277   0.00000  Uiso   1.00
C154   C     0.50080   0.00190   0.35993   0.00000  Uiso   1.00
C155   C     0.50096   0.01795   0.35988   0.00000  Uiso   1.00
C156   C     0.50092   0.02635   0.29265   0.00000  Uiso   1.00
C157   C     0.50067   0.01778   0.22642   0.00000  Uiso   1.00
C158   C     0.50028   0.00202   0.22646   0.00000  Uiso   1.00
C159   C     0.49998   0.99753   0.15271   0.00000  Uiso   1.00
N9     N     0.50036   0.00988   0.10576   0.00000  Uiso   1.00
C160   C     0.50073   0.02225   0.15268   0.00000  Uiso   1.00
N10    N     0.50095   0.03705   0.13109   0.00000  Uiso   1.00
C161   C     0.50075   0.04153   0.05958   0.00000  Uiso   1.00
N11    N     0.50043   0.03180  -0.00005   0.00000  Uiso   1.00
C162   C     0.49993   0.04154   0.94032   0.00000  Uiso   1.00
C163   C     0.49982   0.05681   0.96201   0.00000  Uiso   1.00
C164   C     0.50047   0.05680   0.03798   0.00000  Uiso   1.00
N12    N     0.50063   0.00989   0.89413   0.00000  Uiso   1.00
C165   C     0.50029   0.02226   0.84719   0.00000  Uiso   1.00
N13    N     0.49987   0.03706   0.86881   0.00000  Uiso   1.00
C166   C     0.50056   0.01779   0.77346   0.00000  Uiso   1.00
C167   C     0.50099   0.00203   0.77345   0.00000  Uiso   1.00
C168   C     0.50112   0.99754   0.84719   0.00000  Uiso   1.00
C169   C     0.50078   0.07045   0.07951   0.00000  Uiso   1.00
C170   C     0.50031   0.08451   0.04003   0.00000  Uiso   1.00
C171   C     0.49907   0.08454   0.96039   0.00000  Uiso   1.00
C172   C     0.49905   0.07050   0.92066   0.00000  Uiso   1.00
C173   C     0.50117   0.99348   0.70716   0.00000  Uiso   1.00
C174   C     0.50110   0.00191   0.64000   0.00000  Uiso   1.00
C175   C     0.50091   0.01795   0.64001   0.00000  Uiso   1.00
C176   C     0.50057   0.02636   0.70721   0.00000  Uiso   1.00
N14    N     0.50053   0.98795  -0.00004   0.00000  Uiso   1.00
C177   C     0.50142   0.97823   0.94033   0.00000  Uiso   1.00
N15    N     0.50166   0.98272   0.86882   0.00000  Uiso   1.00
C178   C     0.50112   0.96294   0.96202   0.00000  Uiso   1.00
C179   C     0.49955   0.96295   0.03796   0.00000  Uiso   1.00
C180   C     0.49953   0.97824   0.05960   0.00000  Uiso   1.00
C181   C     0.49804   0.94929   0.07939   0.00000  Uiso   1.00
C182   C     0.49862   0.93523   0.03987   0.00000  Uiso   1.00
C183   C     0.50158   0.93521   0.96040   0.00000  Uiso   1.00
C184   C     0.50232   0.94925   0.92070   0.00000  Uiso   1.00
N16    N     0.49937   0.98272   0.13111   0.00000  Uiso   1.00
H57    H     0.50028   0.98096   0.29258   0.00000  Uiso   1.00
O33    O     0.50111   0.99492   0.42928   0.00000  Uiso   1.00
O34    O     0.50120   0.02494   0.42919   0.00000  Uiso   1.00
H58    H     0.50110   0.03886   0.29233   0.00000  Uiso   1.00
H59    H     0.50138   0.07025   0.13996   0.00000  Uiso   1.00
O35    O     0.50113   0.09856   0.07826   0.00000  Uiso   1.00
O36    O     0.49785   0.09863   0.92246   0.00000  Uiso   1.00
H60    H     0.49838   0.07034   0.86021   0.00000  Uiso   1.00
H61    H     0.50135   0.98096   0.70740   0.00000  Uiso   1.00
O37    O     0.50127   0.99493   0.57068   0.00000  Uiso   1.00
O38    O     0.50112   0.02495   0.57069   0.00000  Uiso   1.00
H62    H     0.50039   0.03888   0.70751   0.00000  Uiso   1.00
H63    H     0.49634   0.94948   0.13977   0.00000  Uiso   1.00
O39    O     0.49628   0.92118   0.07792   0.00000  Uiso   1.00
O40    O     0.50384   0.92112   0.92262   0.00000  Uiso   1.00
H64    H     0.50393   0.94942   0.86031   0.00000  Uiso   1.00
Ni2    Ni    0.50049   0.00988  -0.00006   0.00000  Uiso   1.00
Zn1    Zn   -0.00047   0.40810  -0.00007   0.00000  Uiso   1.00
Zn2    Zn   -0.00045   0.61184   0.00010   0.00000  Uiso   1.00
Zn3    Zn    0.50007   0.90792   0.00045   0.00000  Uiso   1.00
Zn4    Zn    0.49948   0.11181   0.00055   0.00000  Uiso   1.00
Cu1    Cu    0.25009   0.25999  -0.00092   0.00000  Uiso   1.00
Cu2    Cu    0.75013   0.76018  -0.00171   0.00000  Uiso   1.00
Cu3    Cu    0.24987   0.76002   0.00058   0.00000  Uiso   1.00
Cu4    Cu    0.75015   0.25982  -0.00036   0.00000  Uiso   1.00
Cu5    Cu    1.00043   0.50994   0.50013   0.00000  Uiso   1.00
Cu6    Cu    0.50119   0.00994   0.49996   0.00000  Uiso   1.00
loop_
_geom_bond_atom_site_label_1
_geom_bond_atom_site_label_2
_geom_bond_distance
_geom_bond_site_symmetry_2
_ccdc_geom_bond_type
C1     C2      1.428   .     A
C1     C6      1.430   .     A
C1     C11     1.424   .     A
C2     C3      1.429   1_655 A
C2     C14     1.423   .     A
C3     C2      1.429   1_455 A
C3     C4      1.428   .     A
C3     C10     1.423   .     A
C4     C5      1.430   .     A
C4     C7      1.424   .     A
C5     C6      1.428   1_455 A
C5     C18     1.424   .     A
C6     C5      1.428   1_655 A
C6     C15     1.424   .     A
C7     C8      1.395   .     A
C7     H1      1.075   .     S
C8     C9      1.406   .     A
C8     C26     1.410   .     A
C9     C10     1.394   .     A
C9     C23     1.409   .     A
C10    H2      1.075   .     S
C11    C12     1.395   .     A
C11    H3      1.074   .     S
C12    C13     1.406   .     A
C12    C30     1.409   .     A
C13    C14     1.394   .     A
C13    C27     1.409   .     A
C14    H4      1.075   .     S
C15    C16     1.396   .     A
C15    H5      1.074   .     S
C16    C17     1.403   1_655 A
C16    C22     1.408   .     A
C17    C16     1.403   1_455 A
C17    C18     1.396   .     A
C17    C19     1.408   .     A
C18    H6      1.074   .     S
C19    C20     1.396   .     A
C19    H7      1.084   .     S
C20    C21     1.409   1_455 A
C20    O1      1.396   .     S
C21    C20     1.409   1_655 A
C21    C22     1.396   .     A
C21    O2      1.396   .     S
C22    H8      1.084   .     S
C23    C24     1.395   .     A
C23    H9      1.084   .     S
C24    C25     1.372   .     A
C24    O3      1.381   .     S
C25    C26     1.396   .     A
C25    O4      1.381   .     S
C26    H10     1.084   .     S
O1     Zn1     1.802   .     S
O2     Zn1     1.801   1_655 S
O3     Cu1     1.811   .     S
O4     Cu1     1.812   .     S
C27    C28     1.395   .     A
C27    H11     1.084   .     S
C28    C29     1.372   .     A
C28    O5      1.381   .     S
C29    C30     1.395   .     A
C29    O6      1.380   .     S
C30    H12     1.084   .     S
O5     Cu4     1.812   .     S
O6     Cu4     1.811   .     S
C31    C32     1.426   .     A
C31    C36     1.429   .     A
C31    C41     1.423   .     A
C32    C33     1.427   1_655 A
C32    C44     1.422   .     A
C33    C32     1.427   1_455 A
C33    C34     1.426   .     A
C33    C40     1.422   .     A
C34    C35     1.430   .     A
C34    C37     1.423   .     A
C35    C36     1.428   1_455 A
C35    C48     1.423   .     A
C36    C35     1.428   1_655 A
C36    C45     1.423   .     A
C37    C38     1.397   .     A
C37    H13     1.076   .     S
C38    C39     1.408   .     A
C38    C56     1.410   .     A
C39    C40     1.396   .     A
C39    C53     1.410   .     A
C40    H14     1.078   .     S
C41    C42     1.397   .     A
C41    H15     1.076   .     S
C42    C43     1.408   .     A
C42    C60     1.409   .     A
C43    C44     1.396   .     A
C43    C57     1.410   .     A
C44    H16     1.077   .     S
C45    C46     1.397   .     A
C45    H17     1.076   .     S
C46    C47     1.404   1_655 A
C46    C52     1.408   .     A
C47    C46     1.404   1_455 A
C47    C48     1.397   .     A
C47    C49     1.408   .     A
C48    H18     1.076   .     S
C49    C50     1.397   .     A
C49    H19     1.083   .     S
C50    C51     1.410   1_455 A
C50    O7      1.396   .     S
C51    C50     1.410   1_655 A
C51    C52     1.397   .     A
C51    O8      1.396   .     S
C52    H20     1.083   .     S
C53    C54     1.397   .     A
C53    H21     1.084   .     S
C54    C55     1.372   .     A
C54    O9      1.382   .     S
C55    C56     1.396   .     A
C55    O10     1.381   .     S
C56    H22     1.084   .     S
O7     Zn2     1.802   .     S
O8     Zn2     1.803   1_655 S
O9     Cu3     1.813   .     S
O10    Cu3     1.812   .     S
C57    C58     1.396   .     A
C57    H23     1.084   .     S
C58    C59     1.372   .     A
C58    O11     1.382   .     S
C59    C60     1.396   .     A
C59    O12     1.380   .     S
C60    H24     1.084   .     S
O11    Cu2     1.813   .     S
O12    Cu2     1.811   .     S
C61    C62     1.426   .     A
C61    C66     1.427   .     A
C61    C71     1.421   .     A
C62    C63     1.427   .     A
C62    C74     1.421   .     A
C63    C64     1.425   .     A
C63    C70     1.421   .     A
C64    C65     1.425   .     A
C64    C67     1.421   .     A
C65    C66     1.425   .     A
C65    C78     1.420   .     A
C66    C75     1.421   .     A
C67    C68     1.394   .     A
C67    H25     1.077   .     S
C68    C69     1.408   .     A
C68    C86     1.409   .     A
C69    C70     1.397   .     A
C69    C83     1.407   .     A
C70    H26     1.078   .     S
C71    C72     1.395   .     A
C71    H27     1.076   .     S
C72    C73     1.408   .     A
C72    C90     1.409   .     A
C73    C74     1.397   .     A
C73    C87     1.409   .     A
C74    H28     1.078   .     S
C75    C76     1.397   .     A
C75    H29     1.077   .     S
C76    C77     1.405   .     A
C76    C82     1.406   .     A
C77    C78     1.395   .     A
C77    C79     1.406   .     A
C78    H30     1.077   .     S
C79    C80     1.396   .     A
C79    H31     1.084   .     S
C80    C81     1.410   .     A
C80    O13     1.396   .     S
C81    C82     1.397   .     A
C81    O14     1.396   .     S
C82    H32     1.084   .     S
C83    C84     1.395   .     A
C83    H33     1.083   .     S
C84    C85     1.373   .     A
C84    O15     1.380   .     S
C85    C86     1.396   .     A
C85    O16     1.382   .     S
C86    H34     1.084   .     S
O13    Zn3     1.803   .     S
O14    Zn3     1.803   .     S
O15    Cu2     1.811   .     S
O16    Cu2     1.813   .     S
C87    C88     1.396   .     A
C87    H35     1.084   .     S
C88    C89     1.372   .     A
C88    O17     1.381   .     S
C89    C90     1.396   .     A
C89    O18     1.382   .     S
C90    H36     1.084   .     S
O17    Cu3     1.813   .     S
O18    Cu3     1.813   .     S
C91    C92     1.427   .     A
C91    C96     1.428   .     A
C91    C101    1.423   .     A
C92    C93     1.428   .     A
C92    C104    1.423   .     A
C93    C94     1.428   .     A
C93    C100    1.423   .     A
C94    C95     1.430   .     A
C94    C97     1.423   .     A
C95    C96     1.427   .     A
C95    C108    1.423   .     A
C96    C105    1.423   .     A
C97    C98     1.395   .     A
C97    H37     1.075   .     S
C98    C99     1.406   .     A
C98    C116    1.409   .     A
C99    C100    1.394   .     A
C99    C113    1.409   .     A
C100   H38     1.075   .     S
C101   C102    1.395   .     A
C101   H39     1.076   .     S
C102   C103    1.406   .     A
C102   C120    1.409   .     A
C103   C104    1.395   .     A
C103   C117    1.409   .     A
C104   H40     1.075   .     S
C105   C106    1.396   .     A
C105   H41     1.076   .     S
C106   C107    1.403   .     A
C106   C112    1.407   .     A
C107   C108    1.396   .     A
C107   C109    1.407   .     A
C108   H42     1.075   .     S
C109   C110    1.396   .     A
C109   H43     1.084   .     S
C110   C111    1.410   .     A
C110   O19     1.396   .     S
C111   C112    1.397   .     A
C111   O20     1.396   .     S
C112   H44     1.084   .     S
C113   C114    1.395   .     A
C113   H45     1.084   .     S
C114   C115    1.372   .     A
C114   O21     1.380   .     S
C115   C116    1.395   .     A
C115   O22     1.381   .     S
C116   H46     1.084   .     S
O19    Zn4     1.802   .     S
O20    Zn4     1.803   .     S
O21    Cu4     1.811   .     S
O22    Cu4     1.812   .     S
C117   C118    1.395   .     A
C117   H47     1.084   .     S
C118   C119    1.372   .     A
C118   O23     1.381   .     S
C119   C120    1.396   .     A
C119   O24     1.381   .     S
C120   H48     1.084   .     S
O23    Cu1     1.811   .     S
O24    Cu1     1.812   .     S
C121   C122    1.407   .     A
C121   C126    1.396   .     A
C121   H49     1.083   .     S
C122   C123    1.427   1_554 A
C122   O25     1.395   .     S
C123   C122    1.427   1_556 A
C123   C124    1.407   .     A
C123   O26     1.395   .     S
C124   C125    1.396   .     A
C124   H50     1.083   .     S
C125   C126    1.360   1_556 A
C125   C128    1.376   .     A
C126   C125    1.360   1_554 A
C126   C127    1.376   .     A
C127   N1      1.360   .     A
C127   N8      1.338   .     A
N1     C128    1.359   1_554 A
N1     Ni1     1.895   .     S
C128   N1      1.359   1_556 A
C128   N2      1.338   .     A
N2     C129    1.337   .     A
C129   N3      1.360   .     A
C129   C132    1.376   1_455 A
N3     C130    1.360   .     A
N3     Ni1     1.895   1_556 S
C130   C131    1.376   .     A
C130   N5      1.338   .     A
C131   C132    1.363   1_455 A
C131   C140    1.399   .     A
C132   C131    1.363   1_655 A
C132   C129    1.376   1_655 A
C132   C137    1.398   .     A
N4     C133    1.359   1_554 A
N4     C136    1.360   .     A
N4     Ni1     1.895   .     S
C133   N4      1.359   1_556 A
C133   N5      1.338   .     A
C133   C134    1.376   .     A
C134   C135    1.360   1_556 A
C134   C144    1.396   .     A
C135   C134    1.360   1_554 A
C135   C136    1.377   .     A
C135   C141    1.396   .     A
C136   N7      1.337   1_455 A
C137   C138    1.406   .     A
C137   H51     1.083   .     S
C138   C139    1.388   .     A
C138   O27     1.381   .     S
C139   C140    1.406   1_655 A
C139   O28     1.381   .     S
C140   C139    1.406   1_455 A
C140   H52     1.083   .     S
C141   C142    1.407   .     A
C141   H53     1.083   1_455 S
C142   C143    1.426   1_554 A
C142   O29     1.395   .     S
C143   C142    1.426   1_556 A
C143   C144    1.407   .     A
C143   O30     1.395   .     S
C144   H54     1.083   .     S
N6     C145    1.360   .     A
N6     C148    1.360   .     A
N6     Ni1     1.895   .     S
C145   N7      1.338   1_455 A
C145   C146    1.376   .     A
N7     C136    1.337   1_655 A
N7     C145    1.338   1_655 A
C146   C147    1.364   .     A
C146   C152    1.399   1_455 A
C147   C148    1.376   .     A
C147   C149    1.399   .     A
C148   N8      1.338   .     A
C149   C150    1.406   .     A
C149   H55     1.083   .     S
C150   C151    1.388   1_455 A
C150   O31     1.381   1_455 S
C151   C150    1.388   1_655 A
C151   C152    1.406   .     A
C151   O32     1.381   .     S
C152   C146    1.399   1_655 A
C152   H56     1.083   .     S
O25    Zn1     1.803   .     S
O26    Zn1     1.803   1_556 S
O27    Cu5     1.814   .     S
O28    Cu5     1.814   .     S
H53    C141    1.083   1_655 S
O29    Zn2     1.804   .     S
O30    Zn2     1.804   1_556 S
O31    C150    1.381   1_655 S
O31    Cu5     1.814   .     S
O32    Cu5     1.814   .     S
Ni1    N3      1.895   1_554 S
C153   C154    1.406   1_565 A
C153   C158    1.399   1_565 A
C153   H57     1.083   .     S
C154   C153    1.406   1_545 A
C154   C155    1.388   .     A
C154   O33     1.381   1_545 S
C155   C156    1.406   .     A
C155   O34     1.381   .     S
C156   C157    1.399   .     A
C156   H58     1.083   .     S
C157   C158    1.364   .     A
C157   C160    1.376   .     A
C158   C153    1.399   1_545 A
C158   C159    1.376   1_545 A
C159   C158    1.376   1_565 A
C159   N9      1.360   1_565 A
C159   N16     1.339   .     A
N9     C159    1.360   1_545 A
N9     C160    1.360   .     A
N9     Ni2     1.895   .     S
C160   N10     1.337   .     A
N10    C161    1.338   .     A
C161   N11     1.359   .     A
C161   C164    1.376   .     A
N11    C162    1.360   1_554 A
N11    Ni2     1.896   .     S
C162   N11     1.360   1_556 A
C162   C163    1.377   .     A
C162   N13     1.338   .     A
C163   C164    1.360   1_556 A
C163   C172    1.397   .     A
C164   C163    1.360   1_554 A
C164   C169    1.396   .     A
N12    C165    1.361   .     A
N12    C168    1.360   1_545 A
N12    Ni2     1.895   1_556 S
C165   N13     1.338   .     A
C165   C166    1.376   .     A
C166   C167    1.364   .     A
C166   C176    1.399   .     A
C167   C168    1.376   1_545 A
C167   C173    1.398   1_545 A
C168   C167    1.376   1_565 A
C168   N12     1.360   1_565 A
C168   N15     1.339   .     A
C169   C170    1.407   .     A
C169   H59     1.083   .     S
C170   C171    1.426   1_554 A
C170   O35     1.395   .     S
C171   C170    1.426   1_556 A
C171   C172    1.407   .     A
C171   O36     1.396   .     S
C172   H60     1.083   .     S
C173   C167    1.398   1_565 A
C173   C174    1.406   1_565 A
C173   H61     1.083   .     S
C174   C173    1.406   1_545 A
C174   C175    1.388   .     A
C174   O37     1.380   1_545 S
C175   C176    1.406   .     A
C175   O38     1.381   .     S
C176   H62     1.083   .     S
N14    C177    1.360   1_554 A
N14    C180    1.360   .     A
N14    Ni2     1.897   1_565 S
C177   N14     1.360   1_556 A
C177   N15     1.338   .     A
C177   C178    1.378   .     A
C178   C179    1.361   1_556 A
C178   C184    1.397   .     A
C179   C178    1.361   1_554 A
C179   C180    1.378   .     A
C179   C181    1.397   .     A
C180   N16     1.338   .     A
C181   C182    1.407   .     A
C181   H63     1.083   .     S
C182   C183    1.426   1_554 A
C182   O39     1.395   .     S
C183   C182    1.426   1_556 A
C183   C184    1.408   .     A
C183   O40     1.396   .     S
C184   H64     1.083   .     S
O33    C154    1.381   1_565 S
O33    Cu6     1.814   1_565 S
O34    Cu6     1.814   .     S
O35    Zn4     1.803   .     S
O36    Zn4     1.805   1_556 S
O37    C174    1.380   1_565 S
O37    Cu6     1.814   1_565 S
O38    Cu6     1.814   .     S
O39    Zn3     1.804   .     S
O40    Zn3     1.806   1_556 S
Ni2    N14     1.897   1_545 S
Ni2    N12     1.895   1_554 S
Zn1    O2      1.801   1_455 S
Zn1    O26     1.803   1_554 S
Zn2    O30     1.804   1_554 S
Zn2    O8      1.803   1_455 S
Zn3    O40     1.806   1_554 S
Zn4    O36     1.805   1_554 S
Cu6    O37     1.814   1_545 S
Cu6    O33     1.814   1_545 S
