data_tfc-B_O-PcMN_O-Zntet
_audit_creation_date              2021-11-06
_audit_creation_method            'Materials Studio'
_symmetry_space_group_name_H-M    'P1'
_symmetry_Int_Tables_number       1
_symmetry_cell_setting            triclinic
loop_
_symmetry_equiv_pos_as_xyz
  x,y,z
_cell_length_a                    12.8340
_cell_length_b                    66.7233
_cell_length_c                    22.7687
_cell_angle_alpha                 90.1839
_cell_angle_beta                  90.0001
_cell_angle_gamma                 90.0000
loop_
_atom_site_label
_atom_site_type_symbol
_atom_site_fract_x
_atom_site_fract_y
_atom_site_fract_z
_atom_site_U_iso_or_equiv
_atom_site_adp_type
_atom_site_occupancy
C1     C     0.89160   0.28132   0.01701   0.00000  Uiso   1.00
C2     C     0.94484   0.29966   0.01692   0.00000  Uiso   1.00
C3     C     0.05527   0.29966   0.01691   0.00000  Uiso   1.00
C4     C     0.10851   0.28132   0.01700   0.00000  Uiso   1.00
C5     C     0.05450   0.26349   0.01710   0.00000  Uiso   1.00
C6     C     0.94561   0.26349   0.01710   0.00000  Uiso   1.00
O1     O     0.78427   0.27982   0.01704   0.00000  Uiso   1.00
O2     O     0.89114   0.31784   0.01688   0.00000  Uiso   1.00
O3     O     0.10897   0.31784   0.01687   0.00000  Uiso   1.00
O4     O     0.21584   0.27982   0.01704   0.00000  Uiso   1.00
O5     O     0.11385   0.24623   0.01722   0.00000  Uiso   1.00
O6     O     0.88627   0.24623   0.01722   0.00000  Uiso   1.00
C7     C     0.89160   0.72557   0.01802   0.00000  Uiso   1.00
C8     C     0.94484   0.70723   0.01841   0.00000  Uiso   1.00
C9     C     0.05527   0.70723   0.01841   0.00000  Uiso   1.00
C10    C     0.10851   0.72557   0.01802   0.00000  Uiso   1.00
C11    C     0.05450   0.74341   0.01763   0.00000  Uiso   1.00
C12    C     0.94561   0.74341   0.01763   0.00000  Uiso   1.00
O7     O     0.78427   0.72707   0.01791   0.00000  Uiso   1.00
O8     O     0.89114   0.68906   0.01869   0.00000  Uiso   1.00
O9     O     0.10897   0.68906   0.01869   0.00000  Uiso   1.00
O10    O     0.21584   0.72707   0.01791   0.00000  Uiso   1.00
O11    O     0.11384   0.76066   0.01719   0.00000  Uiso   1.00
O12    O     0.88626   0.76066   0.01719   0.00000  Uiso   1.00
C13    C     0.39160   0.78132   0.01647   0.00000  Uiso   1.00
C14    C     0.44484   0.79966   0.01608   0.00000  Uiso   1.00
C15    C     0.55527   0.79966   0.01608   0.00000  Uiso   1.00
C16    C     0.60851   0.78132   0.01647   0.00000  Uiso   1.00
C17    C     0.55450   0.76348   0.01686   0.00000  Uiso   1.00
C18    C     0.44561   0.76348   0.01686   0.00000  Uiso   1.00
O13    O     0.28427   0.77982   0.01657   0.00000  Uiso   1.00
O14    O     0.39114   0.81783   0.01580   0.00000  Uiso   1.00
O15    O     0.60897   0.81783   0.01580   0.00000  Uiso   1.00
O16    O     0.71584   0.77982   0.01657   0.00000  Uiso   1.00
O17    O     0.61384   0.74623   0.01729   0.00000  Uiso   1.00
O18    O     0.38626   0.74623   0.01729   0.00000  Uiso   1.00
C19    C     0.39160   0.22557   0.01747   0.00000  Uiso   1.00
C20    C     0.44484   0.20723   0.01757   0.00000  Uiso   1.00
C21    C     0.55527   0.20723   0.01757   0.00000  Uiso   1.00
C22    C     0.60851   0.22557   0.01748   0.00000  Uiso   1.00
C23    C     0.55450   0.24341   0.01738   0.00000  Uiso   1.00
C24    C     0.44561   0.24341   0.01737   0.00000  Uiso   1.00
O19    O     0.28427   0.22707   0.01742   0.00000  Uiso   1.00
O20    O     0.39114   0.18905   0.01761   0.00000  Uiso   1.00
O21    O     0.60897   0.18905   0.01761   0.00000  Uiso   1.00
O22    O     0.71584   0.22707   0.01742   0.00000  Uiso   1.00
O23    O     0.61385   0.26066   0.01725   0.00000  Uiso   1.00
O24    O     0.38627   0.26066   0.01725   0.00000  Uiso   1.00
C25    C     0.00008   0.42494   0.95503   0.00000  Uiso   1.00
C26    C     0.00007   0.40662   0.98589   0.00000  Uiso   1.00
C27    C     0.00007   0.40665   0.04877   0.00000  Uiso   1.00
C28    C     0.00008   0.42498   0.07988   0.00000  Uiso   1.00
C29    C     0.00008   0.44266   0.04740   0.00000  Uiso   1.00
C30    C     0.00008   0.44264   0.98774   0.00000  Uiso   1.00
C31    C     0.00008   0.46243   0.97081   0.00000  Uiso   1.00
N1     N     0.00007   0.47505   0.01781   0.00000  Uiso   1.00
C32    C     0.00008   0.46245   0.06461   0.00000  Uiso   1.00
N2     N     0.00008   0.46827   0.12091   0.00000  Uiso   1.00
C33    C     0.00008   0.48747   0.13807   0.00000  Uiso   1.00
N3     N     0.00008   0.50347   0.10126   0.00000  Uiso   1.00
C34    C     0.00008   0.51948   0.13833   0.00000  Uiso   1.00
C35    C     0.00008   0.51366   0.19630   0.00000  Uiso   1.00
C36    C     0.00008   0.49330   0.19612   0.00000  Uiso   1.00
N4     N     0.00007   0.53185   0.01826   0.00000  Uiso   1.00
C37    C     0.00008   0.54447   0.06525   0.00000  Uiso   1.00
N5     N     0.00008   0.53868   0.12147   0.00000  Uiso   1.00
C38    C     0.00008   0.56426   0.04831   0.00000  Uiso   1.00
C39    C     0.00008   0.56423   0.98865   0.00000  Uiso   1.00
C40    C     0.00008   0.54444   0.97145   0.00000  Uiso   1.00
C41    C     0.00008   0.48216   0.24783   0.00000  Uiso   1.00
C42    C     0.00009   0.49273   0.30160   0.00000  Uiso   1.00
C43    C     0.00008   0.51423   0.30182   0.00000  Uiso   1.00
C44    C     0.00008   0.52480   0.24824   0.00000  Uiso   1.00
C45    C     0.00008   0.58190   0.95613   0.00000  Uiso   1.00
C46    C     0.00007   0.60024   0.98719   0.00000  Uiso   1.00
C47    C     0.00007   0.60028   0.05007   0.00000  Uiso   1.00
C48    C     0.00008   0.58197   0.08098   0.00000  Uiso   1.00
N6     N     0.00007   0.50343   0.93481   0.00000  Uiso   1.00
C49    C     0.00007   0.51942   0.89800   0.00000  Uiso   1.00
N7     N     0.00008   0.53862   0.91515   0.00000  Uiso   1.00
C50    C     0.00008   0.51360   0.83995   0.00000  Uiso   1.00
C51    C     0.00008   0.49323   0.83977   0.00000  Uiso   1.00
C52    C     0.00007   0.48741   0.89773   0.00000  Uiso   1.00
C53    C     0.00008   0.48209   0.78783   0.00000  Uiso   1.00
C54    C     0.00008   0.49267   0.73425   0.00000  Uiso   1.00
C55    C     0.00008   0.51417   0.73446   0.00000  Uiso   1.00
C56    C     0.00008   0.52473   0.78823   0.00000  Uiso   1.00
N8     N     0.00008   0.46822   0.91459   0.00000  Uiso   1.00
H1     H     0.00007   0.42536   0.90746   0.00000  Uiso   1.00
H2     H     0.00008   0.42543   0.12745   0.00000  Uiso   1.00
H3     H     0.00008   0.46593   0.24639   0.00000  Uiso   1.00
H4     H     0.00008   0.54103   0.24711   0.00000  Uiso   1.00
H5     H     0.00007   0.58143   0.90855   0.00000  Uiso   1.00
H6     H     0.00007   0.58156   0.12855   0.00000  Uiso   1.00
H7     H     0.00007   0.46586   0.78896   0.00000  Uiso   1.00
H8     H     0.00007   0.54097   0.78967   0.00000  Uiso   1.00
C57    C     0.00008   0.48230   0.68043   0.00000  Uiso   1.00
C58    C     0.00007   0.49313   0.62804   0.00000  Uiso   1.00
C59    C     0.00007   0.51373   0.62826   0.00000  Uiso   1.00
C60    C     0.00008   0.52454   0.68086   0.00000  Uiso   1.00
C61    C     0.00006   0.38834   0.95530   0.00000  Uiso   1.00
C62    C     0.00006   0.37026   0.98610   0.00000  Uiso   1.00
C63    C     0.00006   0.37029   0.04812   0.00000  Uiso   1.00
C64    C     0.00007   0.38839   0.07914   0.00000  Uiso   1.00
C65    C     0.00009   0.48235   0.35520   0.00000  Uiso   1.00
C66    C     0.00008   0.49316   0.40781   0.00000  Uiso   1.00
C67    C     0.00008   0.51376   0.40803   0.00000  Uiso   1.00
C68    C     0.00008   0.52459   0.35563   0.00000  Uiso   1.00
C69    C     0.00006   0.61848   0.95676   0.00000  Uiso   1.00
C70    C     0.00006   0.63659   0.98772   0.00000  Uiso   1.00
C71    C     0.00006   0.63664   0.04974   0.00000  Uiso   1.00
C72    C     0.00006   0.61858   0.08060   0.00000  Uiso   1.00
H9     H     0.00008   0.46607   0.67909   0.00000  Uiso   1.00
O25    O     0.00007   0.48402   0.57348   0.00000  Uiso   1.00
O26    O     0.00006   0.52285   0.57389   0.00000  Uiso   1.00
H10    H     0.00008   0.54078   0.67986   0.00000  Uiso   1.00
H11    H     0.00006   0.38807   0.90771   0.00000  Uiso   1.00
O27    O     0.00006   0.35203   0.95589   0.00000  Uiso   1.00
O28    O     0.00006   0.35209   0.07813   0.00000  Uiso   1.00
H12    H     0.00007   0.38815   0.12673   0.00000  Uiso   1.00
H13    H     0.00009   0.46612   0.35621   0.00000  Uiso   1.00
O29    O     0.00006   0.48404   0.46218   0.00000  Uiso   1.00
O30    O     0.00007   0.52287   0.46259   0.00000  Uiso   1.00
H14    H     0.00009   0.54082   0.35698   0.00000  Uiso   1.00
H15    H     0.00007   0.61870   0.90917   0.00000  Uiso   1.00
O31    O     0.00006   0.65478   0.95764   0.00000  Uiso   1.00
O32    O     0.00005   0.65489   0.07988   0.00000  Uiso   1.00
H16    H     0.00006   0.61886   0.12819   0.00000  Uiso   1.00
Ni1    Ni    0.00005   0.50345   0.01803   0.00000  Uiso   1.00
C73    C     0.50004   0.08195   0.07946   0.00000  Uiso   1.00
C74    C     0.50004   0.10027   0.04859   0.00000  Uiso   1.00
C75    C     0.50004   0.10024   0.98571   0.00000  Uiso   1.00
C76    C     0.50004   0.08191   0.95461   0.00000  Uiso   1.00
C77    C     0.50005   0.06423   0.98709   0.00000  Uiso   1.00
C78    C     0.50005   0.06425   0.04675   0.00000  Uiso   1.00
C79    C     0.50003   0.04446   0.06368   0.00000  Uiso   1.00
N9     N     0.50002   0.03184   0.01668   0.00000  Uiso   1.00
C80    C     0.50003   0.04444   0.96988   0.00000  Uiso   1.00
N10    N     0.50003   0.03862   0.91357   0.00000  Uiso   1.00
C81    C     0.50002   0.01942   0.89642   0.00000  Uiso   1.00
N11    N     0.50002   0.00342   0.93322   0.00000  Uiso   1.00
C82    C     0.50002   0.98741   0.89615   0.00000  Uiso   1.00
C83    C     0.50001   0.99323   0.83818   0.00000  Uiso   1.00
C84    C     0.50002   0.01359   0.83837   0.00000  Uiso   1.00
N12    N     0.50002   0.97504   0.01622   0.00000  Uiso   1.00
C85    C     0.50003   0.96242   0.96923   0.00000  Uiso   1.00
N13    N     0.50002   0.96821   0.91301   0.00000  Uiso   1.00
C86    C     0.50004   0.94263   0.98617   0.00000  Uiso   1.00
C87    C     0.50005   0.94266   0.04584   0.00000  Uiso   1.00
C88    C     0.50003   0.96245   0.06303   0.00000  Uiso   1.00
C89    C     0.50003   0.02473   0.78665   0.00000  Uiso   1.00
C90    C     0.50002   0.01417   0.73288   0.00000  Uiso   1.00
C91    C     0.50002   0.99267   0.73267   0.00000  Uiso   1.00
C92    C     0.50002   0.98209   0.78625   0.00000  Uiso   1.00
C93    C     0.50004   0.92499   0.07835   0.00000  Uiso   1.00
C94    C     0.50004   0.90665   0.04730   0.00000  Uiso   1.00
C95    C     0.50004   0.90661   0.98442   0.00000  Uiso   1.00
C96    C     0.50004   0.92492   0.95350   0.00000  Uiso   1.00
N14    N     0.50002   0.00346   0.09968   0.00000  Uiso   1.00
C97    C     0.50002   0.98747   0.13649   0.00000  Uiso   1.00
N15    N     0.50003   0.96827   0.11933   0.00000  Uiso   1.00
C98    C     0.50001   0.99330   0.19454   0.00000  Uiso   1.00
C99    C     0.50001   0.01366   0.19472   0.00000  Uiso   1.00
C100   C     0.50001   0.01948   0.13675   0.00000  Uiso   1.00
C101   C     0.50001   0.02480   0.24665   0.00000  Uiso   1.00
C102   C     0.50001   0.01422   0.30023   0.00000  Uiso   1.00
C103   C     0.50001   0.99272   0.30002   0.00000  Uiso   1.00
C104   C     0.50002   0.98216   0.24625   0.00000  Uiso   1.00
N16    N     0.50002   0.03867   0.11990   0.00000  Uiso   1.00
H17    H     0.50002   0.08153   0.12703   0.00000  Uiso   1.00
H18    H     0.50003   0.08145   0.90703   0.00000  Uiso   1.00
H19    H     0.50004   0.04097   0.78809   0.00000  Uiso   1.00
H20    H     0.50003   0.96586   0.78737   0.00000  Uiso   1.00
H21    H     0.50002   0.92546   0.12593   0.00000  Uiso   1.00
H22    H     0.50002   0.92533   0.90593   0.00000  Uiso   1.00
H23    H     0.50002   0.04103   0.24553   0.00000  Uiso   1.00
H24    H     0.50003   0.96592   0.24481   0.00000  Uiso   1.00
C105   C     0.50001   0.02459   0.35405   0.00000  Uiso   1.00
C106   C     0.50000   0.01376   0.40644   0.00000  Uiso   1.00
C107   C     0.50000   0.99316   0.40623   0.00000  Uiso   1.00
C108   C     0.50000   0.98235   0.35362   0.00000  Uiso   1.00
C109   C     0.50004   0.11855   0.07918   0.00000  Uiso   1.00
C110   C     0.50005   0.13663   0.04838   0.00000  Uiso   1.00
C111   C     0.50005   0.13660   0.98636   0.00000  Uiso   1.00
C112   C     0.50004   0.11850   0.95534   0.00000  Uiso   1.00
C113   C     0.50001   0.02454   0.67928   0.00000  Uiso   1.00
C114   C     0.50000   0.01373   0.62667   0.00000  Uiso   1.00
C115   C     0.50000   0.99313   0.62646   0.00000  Uiso   1.00
C116   C     0.50001   0.98230   0.67885   0.00000  Uiso   1.00
C117   C     0.50004   0.88841   0.07772   0.00000  Uiso   1.00
C118   C     0.50005   0.87030   0.04677   0.00000  Uiso   1.00
C119   C     0.50005   0.87025   0.98475   0.00000  Uiso   1.00
C120   C     0.50004   0.88831   0.95388   0.00000  Uiso   1.00
H25    H     0.50001   0.04082   0.35539   0.00000  Uiso   1.00
O33    O     0.49998   0.02287   0.46101   0.00000  Uiso   1.00
O34    O     0.49999   0.98404   0.46060   0.00000  Uiso   1.00
H26    H     0.50000   0.96612   0.35463   0.00000  Uiso   1.00
H27    H     0.50004   0.11882   0.12677   0.00000  Uiso   1.00
O35    O     0.50005   0.15486   0.07859   0.00000  Uiso   1.00
O36    O     0.50006   0.15480   0.95635   0.00000  Uiso   1.00
H28    H     0.50004   0.11874   0.90776   0.00000  Uiso   1.00
H29    H     0.50001   0.04077   0.67827   0.00000  Uiso   1.00
O37    O     0.49999   0.02285   0.57230   0.00000  Uiso   1.00
O38    O     0.49998   0.98402   0.57189   0.00000  Uiso   1.00
H30    H     0.50001   0.96607   0.67751   0.00000  Uiso   1.00
H31    H     0.50004   0.88819   0.12531   0.00000  Uiso   1.00
O39    O     0.50006   0.85211   0.07685   0.00000  Uiso   1.00
O40    O     0.50005   0.85200   0.95461   0.00000  Uiso   1.00
H32    H     0.50004   0.88803   0.90629   0.00000  Uiso   1.00
Ni2    Ni    0.50000   0.00344   0.01645   0.00000  Uiso   1.00
Zn1    Zn    0.00006   0.33494   0.01692   0.00000  Uiso   1.00
Zn2    Zn    0.00006   0.67196   0.01876   0.00000  Uiso   1.00
Zn3    Zn    0.50005   0.83493   0.01572   0.00000  Uiso   1.00
Zn4    Zn    0.50006   0.17195   0.01756   0.00000  Uiso   1.00
Cu1    Cu    0.25006   0.25345   0.01722   0.00000  Uiso   1.00
Cu2    Cu    0.75005   0.75345   0.01723   0.00000  Uiso   1.00
Cu3    Cu    0.25005   0.75345   0.01723   0.00000  Uiso   1.00
Cu4    Cu    0.75006   0.25345   0.01722   0.00000  Uiso   1.00
Cu5    Cu    0.00004   0.50345   0.51803   0.00000  Uiso   1.00
Cu6    Cu    0.49996   0.00345   0.51645   0.00000  Uiso   1.00
loop_
_geom_bond_atom_site_label_1
_geom_bond_atom_site_label_2
_geom_bond_distance
_geom_bond_site_symmetry_2
_ccdc_geom_bond_type
C1     C2      1.402   .     A
C1     C6      1.377   .     A
C1     O1      1.381   .     S
C2     C3      1.417   1_655 A
C2     O2      1.395   .     S
C3     C2      1.417   1_455 A
C3     C4      1.402   .     A
C3     O3      1.395   .     S
C4     C5      1.377   .     A
C4     O4      1.381   .     S
C5     C6      1.397   1_455 A
C5     O5      1.381   .     S
C6     C5      1.397   1_655 A
C6     O6      1.381   .     S
O1     Cu4     1.814   .     S
O2     Zn1     1.804   1_655 S
O3     Zn1     1.804   .     S
O4     Cu1     1.814   .     S
O5     Cu1     1.813   .     S
O6     Cu4     1.813   .     S
C7     C8      1.402   .     A
C7     C12     1.377   .     A
C7     O7      1.381   .     S
C8     C9      1.417   1_655 A
C8     O8      1.395   .     S
C9     C8      1.417   1_455 A
C9     C10     1.402   .     A
C9     O9      1.395   .     S
C10    C11     1.377   .     A
C10    O10     1.381   .     S
C11    C12     1.397   1_455 A
C11    O11     1.381   .     S
C12    C11     1.397   1_655 A
C12    O12     1.381   .     S
O7     Cu2     1.814   .     S
O8     Zn2     1.804   1_655 S
O9     Zn2     1.804   .     S
O10    Cu3     1.814   .     S
O11    Cu3     1.813   .     S
O12    Cu2     1.813   .     S
C13    C14     1.402   .     A
C13    C18     1.377   .     A
C13    O13     1.381   .     S
C14    C15     1.417   .     A
C14    O14     1.395   .     S
C15    C16     1.402   .     A
C15    O15     1.395   .     S
C16    C17     1.377   .     A
C16    O16     1.381   .     S
C17    C18     1.397   .     A
C17    O17     1.381   .     S
C18    O18     1.381   .     S
O13    Cu3     1.814   .     S
O14    Zn3     1.804   .     S
O15    Zn3     1.804   .     S
O16    Cu2     1.814   .     S
O17    Cu2     1.813   .     S
O18    Cu3     1.813   .     S
C19    C20     1.402   .     A
C19    C24     1.377   .     A
C19    O19     1.381   .     S
C20    C21     1.417   .     A
C20    O20     1.395   .     S
C21    C22     1.402   .     A
C21    O21     1.395   .     S
C22    C23     1.377   .     A
C22    O22     1.381   .     S
C23    C24     1.397   .     A
C23    O23     1.381   .     S
C24    O24     1.381   .     S
O19    Cu1     1.814   .     S
O20    Zn4     1.804   .     S
O21    Zn4     1.804   .     S
O22    Cu4     1.814   .     S
O23    Cu4     1.813   .     S
O24    Cu1     1.813   .     S
C25    C26     1.412   .     A
C25    C30     1.394   .     A
C25    H1      1.084   .     S
C26    C27     1.432   1_556 A
C26    C61     1.403   .     A
C27    C26     1.432   1_554 A
C27    C28     1.411   .     A
C27    C64     1.403   .     A
C28    C29     1.394   .     A
C28    H2      1.084   .     S
C29    C30     1.358   1_554 A
C29    C32     1.377   .     A
C30    C29     1.358   1_556 A
C30    C31     1.377   .     A
C31    N1      1.359   1_556 A
C31    N8      1.338   .     A
N1     C31     1.359   1_554 A
N1     C32     1.359   .     A
N1     Ni1     1.895   .     S
C32    N2      1.338   .     A
N2     C33     1.338   .     A
C33    N3      1.359   .     A
C33    C36     1.377   .     A
N3     C34     1.359   .     A
N3     Ni1     1.895   .     S
C34    C35     1.377   .     A
C34    N5      1.338   .     A
C35    C36     1.359   .     A
C35    C44     1.395   .     A
C36    C41     1.394   .     A
N4     C37     1.359   .     A
N4     C40     1.359   1_554 A
N4     Ni1     1.895   .     S
C37    N5      1.338   .     A
C37    C38     1.377   .     A
C38    C39     1.358   1_554 A
C38    C48     1.394   .     A
C39    C38     1.358   1_556 A
C39    C40     1.376   .     A
C39    C45     1.394   .     A
C40    N4      1.359   1_556 A
C40    N7      1.338   .     A
C41    C42     1.411   .     A
C41    H3      1.084   .     S
C42    C43     1.435   .     A
C42    C65     1.405   .     A
C43    C44     1.411   .     A
C43    C68     1.405   .     A
C44    H4      1.084   .     S
C45    C46     1.411   .     A
C45    H5      1.084   .     S
C46    C47     1.432   1_556 A
C46    C69     1.403   .     A
C47    C46     1.432   1_554 A
C47    C48     1.412   .     A
C47    C72     1.403   .     A
C48    H6      1.084   .     S
N6     C49     1.359   .     A
N6     C52     1.359   .     A
N6     Ni1     1.895   1_556 S
C49    N7      1.338   .     A
C49    C50     1.377   .     A
C50    C51     1.359   .     A
C50    C56     1.394   .     A
C51    C52     1.377   .     A
C51    C53     1.395   .     A
C52    N8      1.338   .     A
C53    C54     1.411   .     A
C53    H7      1.084   .     S
C54    C55     1.435   .     A
C54    C57     1.405   .     A
C55    C56     1.411   .     A
C55    C60     1.405   .     A
C56    H8      1.084   .     S
C57    C58     1.397   .     A
C57    H9      1.083   .     S
C58    C59     1.374   .     A
C58    O25     1.381   .     S
C59    C60     1.396   .     A
C59    O26     1.381   .     S
C60    H10     1.083   .     S
C61    C62     1.397   .     A
C61    H11     1.084   .     S
C62    C63     1.412   1_556 A
C62    O27     1.395   .     S
C63    C62     1.412   1_554 A
C63    C64     1.397   .     A
C63    O28     1.395   .     S
C64    H12     1.084   .     S
C65    C66     1.396   .     A
C65    H13     1.083   .     S
C66    C67     1.374   .     A
C66    O29     1.381   .     S
C67    C68     1.397   .     A
C67    O30     1.381   .     S
C68    H14     1.083   .     S
C69    C70     1.397   .     A
C69    H15     1.084   .     S
C70    C71     1.412   1_556 A
C70    O31     1.395   .     S
C71    C70     1.412   1_554 A
C71    C72     1.397   .     A
C71    O32     1.396   .     S
C72    H16     1.084   .     S
O25    Cu5     1.812   .     S
O26    Cu5     1.812   .     S
O27    Zn1     1.801   1_556 S
O28    Zn1     1.800   .     S
O29    Cu5     1.812   .     S
O30    Cu5     1.812   .     S
O31    Zn2     1.800   1_556 S
O32    Zn2     1.801   .     S
Ni1    N6      1.895   1_554 S
C73    C74     1.412   .     A
C73    C78     1.394   .     A
C73    H17     1.084   .     S
C74    C75     1.432   1_554 A
C74    C109    1.403   .     A
C75    C74     1.432   1_556 A
C75    C76     1.411   .     A
C75    C112    1.403   .     A
C76    C77     1.394   .     A
C76    H18     1.084   .     S
C77    C78     1.358   1_556 A
C77    C80     1.377   .     A
C78    C77     1.358   1_554 A
C78    C79     1.377   .     A
C79    N9      1.359   .     A
C79    N16     1.338   .     A
N9     C80     1.359   1_554 A
N9     Ni2     1.895   .     S
C80    N9      1.359   1_556 A
C80    N10     1.338   .     A
N10    C81     1.338   .     A
C81    N11     1.359   .     A
C81    C84     1.377   .     A
N11    C82     1.359   1_545 A
N11    Ni2     1.895   1_556 S
C82    N11     1.359   1_565 A
C82    C83     1.377   .     A
C82    N13     1.338   .     A
C83    C84     1.359   1_565 A
C83    C92     1.395   .     A
C84    C83     1.359   1_545 A
C84    C89     1.394   .     A
N12    C85     1.359   1_554 A
N12    C88     1.359   .     A
N12    Ni2     1.895   1_565 S
C85    N12     1.359   1_556 A
C85    N13     1.338   .     A
C85    C86     1.377   .     A
C86    C87     1.358   1_556 A
C86    C96     1.394   .     A
C87    C86     1.358   1_554 A
C87    C88     1.376   .     A
C87    C93     1.394   .     A
C88    N15     1.338   .     A
C89    C90     1.411   .     A
C89    H19     1.084   .     S
C90    C91     1.435   1_545 A
C90    C113    1.405   .     A
C91    C90     1.435   1_565 A
C91    C92     1.411   .     A
C91    C116    1.405   .     A
C92    H20     1.084   .     S
C93    C94     1.411   .     A
C93    H21     1.084   .     S
C94    C95     1.432   1_554 A
C94    C117    1.403   .     A
C95    C94     1.432   1_556 A
C95    C96     1.412   .     A
C95    C120    1.403   .     A
C96    H22     1.084   .     S
N14    C97     1.359   1_545 A
N14    C100    1.359   .     A
N14    Ni2     1.895   .     S
C97    N14     1.359   1_565 A
C97    N15     1.338   .     A
C97    C98     1.377   .     A
C98    C99     1.359   1_565 A
C98    C104    1.394   .     A
C99    C98     1.359   1_545 A
C99    C100    1.377   .     A
C99    C101    1.395   .     A
C100   N16     1.338   .     A
C101   C102    1.411   .     A
C101   H23     1.084   .     S
C102   C103    1.435   1_545 A
C102   C105    1.405   .     A
C103   C102    1.435   1_565 A
C103   C104    1.411   .     A
C103   C108    1.405   .     A
C104   H24     1.084   .     S
C105   C106    1.397   .     A
C105   H25     1.083   .     S
C106   C107    1.374   1_545 A
C106   O33     1.381   .     S
C107   C106    1.374   1_565 A
C107   C108    1.396   .     A
C107   O34     1.381   .     S
C108   H26     1.083   .     S
C109   C110    1.397   .     A
C109   H27     1.084   .     S
C110   C111    1.412   1_554 A
C110   O35     1.395   .     S
C111   C110    1.412   1_556 A
C111   C112    1.397   .     A
C111   O36     1.395   .     S
C112   H28     1.084   .     S
C113   C114    1.396   .     A
C113   H29     1.083   .     S
C114   C115    1.374   1_545 A
C114   O37     1.381   .     S
C115   C114    1.374   1_565 A
C115   C116    1.397   .     A
C115   O38     1.381   .     S
C116   H30     1.083   .     S
C117   C118    1.397   .     A
C117   H31     1.084   .     S
C118   C119    1.412   1_554 A
C118   O39     1.395   .     S
C119   C118    1.412   1_556 A
C119   C120    1.397   .     A
C119   O40     1.396   .     S
C120   H32     1.084   .     S
O33    Cu6     1.812   .     S
O34    Cu6     1.812   1_565 S
O35    Zn4     1.801   .     S
O36    Zn4     1.800   1_556 S
O37    Cu6     1.812   .     S
O38    Cu6     1.812   1_565 S
O39    Zn3     1.800   .     S
O40    Zn3     1.801   1_556 S
Ni2    N12     1.895   1_545 S
Ni2    N11     1.895   1_554 S
Zn1    O2      1.804   1_455 S
Zn1    O27     1.801   1_554 S
Zn2    O31     1.800   1_554 S
Zn2    O8      1.804   1_455 S
Zn3    O40     1.801   1_554 S
Zn4    O36     1.800   1_554 S
Cu6    O34     1.812   1_545 S
Cu6    O38     1.812   1_545 S
