data_tfc-TP_O-PcM_O-Zntet
_audit_creation_date              2021-11-06
_audit_creation_method            'Materials Studio'
_symmetry_space_group_name_H-M    'P1'
_symmetry_Int_Tables_number       1
_symmetry_cell_setting            triclinic
loop_
_symmetry_equiv_pos_as_xyz
  x,y,z
_cell_length_a                    21.4414
_cell_length_b                    71.8416
_cell_length_c                    17.9084
_cell_angle_alpha                 90.0020
_cell_angle_beta                  89.9979
_cell_angle_gamma                 89.9991
loop_
_atom_site_label
_atom_site_type_symbol
_atom_site_fract_x
_atom_site_fract_y
_atom_site_fract_z
_atom_site_U_iso_or_equiv
_atom_site_adp_type
_atom_site_occupancy
C1     C     0.96670   0.31596   0.00011   0.00000  Uiso   1.00
C2     C     0.03342   0.31596   0.00010   0.00000  Uiso   1.00
C3     C     0.06672   0.29875   0.00010   0.00000  Uiso   1.00
C4     C     0.03332   0.28147   0.00010   0.00000  Uiso   1.00
C5     C     0.96680   0.28147   0.00010   0.00000  Uiso   1.00
C6     C     0.93340   0.29875   0.00011   0.00000  Uiso   1.00
C7     C     0.06826   0.26459   0.00010   0.00000  Uiso   1.00
C8     C     0.13297   0.26487   0.00009   0.00000  Uiso   1.00
C9     C     0.16468   0.28125   0.00009   0.00000  Uiso   1.00
C10    C     0.13320   0.29813   0.00010   0.00000  Uiso   1.00
C11    C     0.93513   0.33340   0.00011   0.00000  Uiso   1.00
C12    C     0.96750   0.35014   0.00010   0.00000  Uiso   1.00
C13    C     0.03263   0.35014   0.00009   0.00000  Uiso   1.00
C14    C     0.06499   0.33340   0.00009   0.00000  Uiso   1.00
C15    C     0.86692   0.29814   0.00010   0.00000  Uiso   1.00
C16    C     0.83544   0.28126   0.00010   0.00000  Uiso   1.00
C17    C     0.86715   0.26488   0.00010   0.00000  Uiso   1.00
C18    C     0.93186   0.26459   0.00010   0.00000  Uiso   1.00
H1     H     0.04761   0.25096   0.00010   0.00000  Uiso   1.00
O1     O     0.16870   0.24886   0.00008   0.00000  Uiso   1.00
O2     O     0.22901   0.28001   0.00009   0.00000  Uiso   1.00
H2     H     0.16252   0.31026   0.00011   0.00000  Uiso   1.00
H3     H     0.88524   0.33475   0.00012   0.00000  Uiso   1.00
O3     O     0.93537   0.36705   0.00010   0.00000  Uiso   1.00
O4     O     0.06476   0.36704   0.00008   0.00000  Uiso   1.00
H4     H     0.11489   0.33475   0.00007   0.00000  Uiso   1.00
H5     H     0.83760   0.31026   0.00010   0.00000  Uiso   1.00
O5     O     0.77111   0.28001   0.00008   0.00000  Uiso   1.00
O6     O     0.83142   0.24886   0.00009   0.00000  Uiso   1.00
H6     H     0.95251   0.25096   0.00010   0.00000  Uiso   1.00
C19    C     0.96670   0.69525   0.00010   0.00000  Uiso   1.00
C20    C     0.03342   0.69525   0.00011   0.00000  Uiso   1.00
C21    C     0.06672   0.71246   0.00011   0.00000  Uiso   1.00
C22    C     0.03332   0.72974   0.00011   0.00000  Uiso   1.00
C23    C     0.96680   0.72974   0.00010   0.00000  Uiso   1.00
C24    C     0.93340   0.71246   0.00010   0.00000  Uiso   1.00
C25    C     0.06825   0.74662   0.00011   0.00000  Uiso   1.00
C26    C     0.13296   0.74634   0.00010   0.00000  Uiso   1.00
C27    C     0.16467   0.72996   0.00009   0.00000  Uiso   1.00
C28    C     0.13320   0.71308   0.00010   0.00000  Uiso   1.00
C29    C     0.93513   0.67782   0.00010   0.00000  Uiso   1.00
C30    C     0.96750   0.66107   0.00010   0.00000  Uiso   1.00
C31    C     0.03262   0.66107   0.00011   0.00000  Uiso   1.00
C32    C     0.06499   0.67782   0.00012   0.00000  Uiso   1.00
C33    C     0.86692   0.71308   0.00010   0.00000  Uiso   1.00
C34    C     0.83544   0.72996   0.00009   0.00000  Uiso   1.00
C35    C     0.86715   0.74634   0.00009   0.00000  Uiso   1.00
C36    C     0.93186   0.74662   0.00009   0.00000  Uiso   1.00
H7     H     0.04760   0.76025   0.00011   0.00000  Uiso   1.00
O7     O     0.16870   0.76235   0.00009   0.00000  Uiso   1.00
O8     O     0.22900   0.73120   0.00008   0.00000  Uiso   1.00
H8     H     0.16252   0.70095   0.00009   0.00000  Uiso   1.00
H9     H     0.88524   0.67646   0.00008   0.00000  Uiso   1.00
O9     O     0.93537   0.64417   0.00009   0.00000  Uiso   1.00
O10    O     0.06476   0.64417   0.00011   0.00000  Uiso   1.00
H10    H     0.11488   0.67646   0.00013   0.00000  Uiso   1.00
H11    H     0.83759   0.70095   0.00011   0.00000  Uiso   1.00
O11    O     0.77111   0.73120   0.00009   0.00000  Uiso   1.00
O12    O     0.83141   0.76235   0.00007   0.00000  Uiso   1.00
H12    H     0.95251   0.76025   0.00009   0.00000  Uiso   1.00
C37    C     0.46669   0.81596   0.00015   0.00000  Uiso   1.00
C38    C     0.53341   0.81596   0.00021   0.00000  Uiso   1.00
C39    C     0.56671   0.79875   0.00015   0.00000  Uiso   1.00
C40    C     0.53331   0.78147   0.00012   0.00000  Uiso   1.00
C41    C     0.46679   0.78147   0.00011   0.00000  Uiso   1.00
C42    C     0.43339   0.79875   0.00011   0.00000  Uiso   1.00
C43    C     0.56825   0.76459   0.00010   0.00000  Uiso   1.00
C44    C     0.63296   0.76488   0.00009   0.00000  Uiso   1.00
C45    C     0.66467   0.78126   0.00009   0.00000  Uiso   1.00
C46    C     0.63319   0.79814   0.00010   0.00000  Uiso   1.00
C47    C     0.43511   0.83340   0.00015   0.00000  Uiso   1.00
C48    C     0.46748   0.85014   0.00025   0.00000  Uiso   1.00
C49    C     0.53260   0.85014   0.00036   0.00000  Uiso   1.00
C50    C     0.56498   0.83340   0.00035   0.00000  Uiso   1.00
C51    C     0.36691   0.79813   0.00010   0.00000  Uiso   1.00
C52    C     0.33544   0.78125   0.00008   0.00000  Uiso   1.00
C53    C     0.36715   0.76487   0.00008   0.00000  Uiso   1.00
C54    C     0.43186   0.76459   0.00009   0.00000  Uiso   1.00
H13    H     0.54760   0.75096   0.00009   0.00000  Uiso   1.00
O13    O     0.66870   0.74886   0.00007   0.00000  Uiso   1.00
O14    O     0.72900   0.78001   0.00006   0.00000  Uiso   1.00
H14    H     0.66251   0.81026   0.00005   0.00000  Uiso   1.00
H15    H     0.38522   0.83475   0.00006   0.00000  Uiso   1.00
O15    O     0.43534   0.86704   0.00027   0.00000  Uiso   1.00
O16    O     0.56473   0.86705   0.00047   0.00000  Uiso   1.00
H16    H     0.61487   0.83475   0.00047   0.00000  Uiso   1.00
H17    H     0.33759   0.81026   0.00011   0.00000  Uiso   1.00
O17    O     0.27111   0.78001   0.00008   0.00000  Uiso   1.00
O18    O     0.33141   0.74886   0.00007   0.00000  Uiso   1.00
H18    H     0.45251   0.75096   0.00009   0.00000  Uiso   1.00
C55    C     0.46670   0.19525   0.00020   0.00000  Uiso   1.00
C56    C     0.53342   0.19525   0.00017   0.00000  Uiso   1.00
C57    C     0.56673   0.21246   0.00012   0.00000  Uiso   1.00
C58    C     0.53332   0.22974   0.00011   0.00000  Uiso   1.00
C59    C     0.46680   0.22974   0.00012   0.00000  Uiso   1.00
C60    C     0.43340   0.21246   0.00014   0.00000  Uiso   1.00
C61    C     0.56826   0.24662   0.00009   0.00000  Uiso   1.00
C62    C     0.63297   0.24634   0.00008   0.00000  Uiso   1.00
C63    C     0.66468   0.22996   0.00008   0.00000  Uiso   1.00
C64    C     0.63321   0.21308   0.00010   0.00000  Uiso   1.00
C65    C     0.43513   0.17782   0.00030   0.00000  Uiso   1.00
C66    C     0.46750   0.16107   0.00034   0.00000  Uiso   1.00
C67    C     0.53263   0.16107   0.00030   0.00000  Uiso   1.00
C68    C     0.56500   0.17782   0.00021   0.00000  Uiso   1.00
C69    C     0.36692   0.21308   0.00010   0.00000  Uiso   1.00
C70    C     0.33544   0.22996   0.00009   0.00000  Uiso   1.00
C71    C     0.36715   0.24634   0.00009   0.00000  Uiso   1.00
C72    C     0.43186   0.24662   0.00010   0.00000  Uiso   1.00
H19    H     0.54761   0.26025   0.00009   0.00000  Uiso   1.00
O19    O     0.66870   0.26235   0.00007   0.00000  Uiso   1.00
O20    O     0.72901   0.23120   0.00007   0.00000  Uiso   1.00
H20    H     0.66253   0.20095   0.00010   0.00000  Uiso   1.00
H21    H     0.38524   0.17646   0.00036   0.00000  Uiso   1.00
O21    O     0.43537   0.14417   0.00042   0.00000  Uiso   1.00
O22    O     0.56476   0.14417   0.00034   0.00000  Uiso   1.00
H22    H     0.61489   0.17646   0.00019   0.00000  Uiso   1.00
H23    H     0.33760   0.20095   0.00007   0.00000  Uiso   1.00
O23    O     0.27112   0.23120   0.00006   0.00000  Uiso   1.00
O24    O     0.33142   0.26235   0.00007   0.00000  Uiso   1.00
H24    H     0.45251   0.26025   0.00009   0.00000  Uiso   1.00
C73    C     0.00008   0.43268   0.07952   0.00000  Uiso   1.00
C74    C     0.00008   0.41577   0.03992   0.00000  Uiso   1.00
C75    C     0.00007   0.41577   0.96025   0.00000  Uiso   1.00
C76    C     0.00007   0.43267   0.92065   0.00000  Uiso   1.00
C77    C     0.00007   0.44913   0.96210   0.00000  Uiso   1.00
C78    C     0.00008   0.44913   0.03807   0.00000  Uiso   1.00
C79    C     0.00007   0.46751   0.05973   0.00000  Uiso   1.00
N1     N     0.00006   0.47922   0.00009   0.00000  Uiso   1.00
C80    C     0.00006   0.46751   0.94044   0.00000  Uiso   1.00
N2     N     1.00004   0.47290   0.86892   0.00000  Uiso   1.00
C81    C     1.00003   0.49073   0.84729   0.00000  Uiso   1.00
N3     N     0.00004   0.50561   0.89424   0.00000  Uiso   1.00
C82    C     0.00003   0.52049   0.84729   0.00000  Uiso   1.00
C83    C     0.00002   0.51510   0.77355   0.00000  Uiso   1.00
C84    C     1.00001   0.49612   0.77355   0.00000  Uiso   1.00
N4     N     0.00006   0.53199   0.00009   0.00000  Uiso   1.00
C85    C     0.00006   0.54370   0.94045   0.00000  Uiso   1.00
N5     N     0.00005   0.53831   0.86893   0.00000  Uiso   1.00
C86    C     0.00007   0.56208   0.96211   0.00000  Uiso   1.00
C87    C     0.00006   0.56208   0.03808   0.00000  Uiso   1.00
C88    C     0.00006   0.54370   0.05974   0.00000  Uiso   1.00
C89    C     1.00000   0.48582   0.70729   0.00000  Uiso   1.00
C90    C     0.99998   0.49595   0.64009   0.00000  Uiso   1.00
C91    C     0.99998   0.51527   0.64010   0.00000  Uiso   1.00
C92    C    -0.00000   0.52540   0.70729   0.00000  Uiso   1.00
C93    C     0.00006   0.57854   0.07953   0.00000  Uiso   1.00
C94    C     0.00006   0.59545   0.03993   0.00000  Uiso   1.00
C95    C     0.00007   0.59545   0.96027   0.00000  Uiso   1.00
C96    C     0.00007   0.57854   0.92067   0.00000  Uiso   1.00
N6     N     0.00004   0.50561   0.10594   0.00000  Uiso   1.00
C97    C     1.00003   0.52049   0.15289   0.00000  Uiso   1.00
N7     N     1.00004   0.53831   0.13126   0.00000  Uiso   1.00
C98    C     0.00002   0.51510   0.22663   0.00000  Uiso   1.00
C99    C     0.00002   0.49612   0.22663   0.00000  Uiso   1.00
C100   C     0.00004   0.49073   0.15288   0.00000  Uiso   1.00
C101   C     0.00001   0.48582   0.29289   0.00000  Uiso   1.00
C102   C    -0.00001   0.49595   0.36008   0.00000  Uiso   1.00
C103   C     0.99999   0.51527   0.36009   0.00000  Uiso   1.00
C104   C     1.00000   0.52540   0.29289   0.00000  Uiso   1.00
N8     N     0.00006   0.47290   0.13125   0.00000  Uiso   1.00
H25    H     0.00008   0.43290   0.13996   0.00000  Uiso   1.00
O25    O     0.00008   0.39884   0.07806   0.00000  Uiso   1.00
O26    O     0.00006   0.39884   0.92211   0.00000  Uiso   1.00
H26    H     0.00006   0.43290   0.86021   0.00000  Uiso   1.00
H27    H     0.99999   0.47075   0.70759   0.00000  Uiso   1.00
O27    O     0.99996   0.48753   0.57078   0.00000  Uiso   1.00
O28    O     0.99996   0.52368   0.57079   0.00000  Uiso   1.00
H28    H    -0.00000   0.54047   0.70760   0.00000  Uiso   1.00
H29    H     1.00005   0.57832   0.13997   0.00000  Uiso   1.00
O29    O     0.00006   0.61237   0.07808   0.00000  Uiso   1.00
O30    O     0.00008   0.61237   0.92212   0.00000  Uiso   1.00
H30    H     0.00008   0.57832   0.86022   0.00000  Uiso   1.00
H31    H     0.00001   0.47075   0.29258   0.00000  Uiso   1.00
O31    O     0.99997   0.48753   0.42939   0.00000  Uiso   1.00
O32    O     0.99997   0.52368   0.42940   0.00000  Uiso   1.00
H32    H     1.00000   0.54047   0.29259   0.00000  Uiso   1.00
Ni1    Ni    0.00005   0.50561   0.00009   0.00000  Uiso   1.00
C105   C     0.49972   0.98581   0.29328   0.00000  Uiso   1.00
C106   C     0.49971   0.99594   0.36048   0.00000  Uiso   1.00
C107   C     0.49972   0.01527   0.36048   0.00000  Uiso   1.00
C108   C     0.49976   0.02540   0.29329   0.00000  Uiso   1.00
C109   C     0.49978   0.01509   0.22703   0.00000  Uiso   1.00
C110   C     0.49976   0.99612   0.22702   0.00000  Uiso   1.00
C111   C     0.49979   0.99073   0.15328   0.00000  Uiso   1.00
N9     N     0.49984   0.00561   0.10634   0.00000  Uiso   1.00
C112   C     0.49983   0.02049   0.15328   0.00000  Uiso   1.00
N10    N     0.49989   0.03831   0.13166   0.00000  Uiso   1.00
C113   C     0.49992   0.04370   0.06014   0.00000  Uiso   1.00
N11    N     0.49990   0.03199   0.00049   0.00000  Uiso   1.00
C114   C     0.49991   0.04370   0.94084   0.00000  Uiso   1.00
C115   C     0.49995   0.06208   0.96250   0.00000  Uiso   1.00
C116   C     0.49996   0.06208   0.03847   0.00000  Uiso   1.00
N12    N     0.49990   0.00561   0.89463   0.00000  Uiso   1.00
C117   C     0.49988   0.02048   0.84769   0.00000  Uiso   1.00
N13    N     0.49989   0.03831   0.86932   0.00000  Uiso   1.00
C118   C     0.49987   0.01509   0.77395   0.00000  Uiso   1.00
C119   C     0.49988   0.99612   0.77394   0.00000  Uiso   1.00
C120   C     0.49990   0.99073   0.84769   0.00000  Uiso   1.00
C121   C     0.50000   0.07854   0.07990   0.00000  Uiso   1.00
C122   C     0.50003   0.09545   0.04029   0.00000  Uiso   1.00
C123   C     0.50001   0.09544   0.96063   0.00000  Uiso   1.00
C124   C     0.49997   0.07853   0.92104   0.00000  Uiso   1.00
C125   C     0.49985   0.98581   0.70768   0.00000  Uiso   1.00
C126   C     0.49980   0.99594   0.64049   0.00000  Uiso   1.00
C127   C     0.49980   0.01527   0.64049   0.00000  Uiso   1.00
C128   C     0.49983   0.02540   0.70769   0.00000  Uiso   1.00
N14    N     0.49988   0.97922   0.00048   0.00000  Uiso   1.00
C129   C     0.49994   0.96751   0.94083   0.00000  Uiso   1.00
N15    N     0.49994   0.97290   0.86931   0.00000  Uiso   1.00
C130   C     0.49995   0.94913   0.96249   0.00000  Uiso   1.00
C131   C     0.49989   0.94913   0.03846   0.00000  Uiso   1.00
C132   C     0.49985   0.96751   0.06013   0.00000  Uiso   1.00
C133   C     0.49989   0.93267   0.07989   0.00000  Uiso   1.00
C134   C     0.49995   0.91576   0.04028   0.00000  Uiso   1.00
C135   C     0.50002   0.91577   0.96061   0.00000  Uiso   1.00
C136   C     0.50002   0.93268   0.92103   0.00000  Uiso   1.00
N16    N     0.49980   0.97290   0.13165   0.00000  Uiso   1.00
H33    H     0.49971   0.97075   0.29298   0.00000  Uiso   1.00
O33    O     0.49969   0.98753   0.42979   0.00000  Uiso   1.00
O34    O     0.49971   0.02368   0.42979   0.00000  Uiso   1.00
H34    H     0.49978   0.04046   0.29299   0.00000  Uiso   1.00
H35    H     0.50002   0.07832   0.14035   0.00000  Uiso   1.00
O35    O     0.50007   0.11238   0.07842   0.00000  Uiso   1.00
O36    O     0.50002   0.11237   0.92247   0.00000  Uiso   1.00
H36    H     0.49996   0.07831   0.86060   0.00000  Uiso   1.00
H37    H     0.49985   0.97075   0.70798   0.00000  Uiso   1.00
O37    O     0.49975   0.98753   0.57118   0.00000  Uiso   1.00
O38    O     0.49976   0.02368   0.57118   0.00000  Uiso   1.00
H38    H     0.49982   0.04046   0.70799   0.00000  Uiso   1.00
H39    H     0.49983   0.93289   0.14034   0.00000  Uiso   1.00
O39    O     0.49993   0.89883   0.07840   0.00000  Uiso   1.00
O40    O     0.50010   0.89884   0.92245   0.00000  Uiso   1.00
H40    H     0.50008   0.93290   0.86058   0.00000  Uiso   1.00
Ni2    Ni    0.49988   0.00560   0.00048   0.00000  Uiso   1.00
Zn1    Zn    0.00007   0.38298   0.00009   0.00000  Uiso   1.00
Zn2    Zn    0.00006   0.62824   0.00010   0.00000  Uiso   1.00
Zn3    Zn    0.50003   0.88297   0.00040   0.00000  Uiso   1.00
Zn4    Zn    0.50006   0.12824   0.00042   0.00000  Uiso   1.00
Cu1    Cu    0.25006   0.25561   0.00006   0.00000  Uiso   1.00
Cu2    Cu    0.75006   0.75561   0.00006   0.00000  Uiso   1.00
Cu3    Cu    0.25006   0.75561   0.00006   0.00000  Uiso   1.00
Cu4    Cu    0.75006   0.25561   0.00006   0.00000  Uiso   1.00
Cu5    Cu    0.99995   0.50561   0.50009   0.00000  Uiso   1.00
Cu6    Cu    0.49971   0.00560   0.50049   0.00000  Uiso   1.00
loop_
_geom_bond_atom_site_label_1
_geom_bond_atom_site_label_2
_geom_bond_distance
_geom_bond_site_symmetry_2
_ccdc_geom_bond_type
C1     C2      1.431   1_655 A
C1     C6      1.428   .     A
C1     C11     1.424   .     A
C2     C1      1.431   1_455 A
C2     C3      1.428   .     A
C2     C14     1.424   .     A
C3     C4      1.433   .     A
C3     C10     1.426   .     A
C4     C5      1.426   1_455 A
C4     C7      1.426   .     A
C5     C4      1.426   1_655 A
C5     C6      1.433   .     A
C5     C18     1.426   .     A
C6     C15     1.426   .     A
C7     C8      1.388   .     A
C7     H1      1.074   .     S
C8     C9      1.359   .     A
C8     O1      1.382   .     S
C9     C10     1.388   .     A
C9     O2      1.382   .     S
C10    H2      1.074   .     S
C11    C12     1.389   .     A
C11    H3      1.074   .     S
C12    C13     1.396   1_655 A
C12    O3      1.396   .     S
C13    C12     1.396   1_455 A
C13    C14     1.389   .     A
C13    O4      1.396   .     S
C14    H4      1.074   .     S
C15    C16     1.388   .     A
C15    H5      1.074   .     S
C16    C17     1.359   .     A
C16    O5      1.382   .     S
C17    C18     1.388   .     A
C17    O6      1.382   .     S
C18    H6      1.074   .     S
O1     Cu1     1.810   .     S
O2     Cu1     1.810   .     S
O3     Zn1     1.798   1_655 S
O4     Zn1     1.798   .     S
O5     Cu4     1.810   .     S
O6     Cu4     1.810   .     S
C19    C20     1.431   1_655 A
C19    C24     1.428   .     A
C19    C29     1.424   .     A
C20    C19     1.431   1_455 A
C20    C21     1.428   .     A
C20    C32     1.424   .     A
C21    C22     1.433   .     A
C21    C28     1.426   .     A
C22    C23     1.426   1_455 A
C22    C25     1.426   .     A
C23    C22     1.426   1_655 A
C23    C24     1.433   .     A
C23    C36     1.426   .     A
C24    C33     1.426   .     A
C25    C26     1.388   .     A
C25    H7      1.074   .     S
C26    C27     1.359   .     A
C26    O7      1.382   .     S
C27    C28     1.388   .     A
C27    O8      1.382   .     S
C28    H8      1.074   .     S
C29    C30     1.389   .     A
C29    H9      1.074   .     S
C30    C31     1.396   1_655 A
C30    O9      1.396   .     S
C31    C30     1.396   1_455 A
C31    C32     1.389   .     A
C31    O10     1.396   .     S
C32    H10     1.074   .     S
C33    C34     1.388   .     A
C33    H11     1.074   .     S
C34    C35     1.359   .     A
C34    O11     1.382   .     S
C35    C36     1.388   .     A
C35    O12     1.382   .     S
C36    H12     1.074   .     S
O7     Cu3     1.810   .     S
O8     Cu3     1.810   .     S
O9     Zn2     1.798   1_655 S
O10    Zn2     1.798   .     S
O11    Cu2     1.810   .     S
O12    Cu2     1.810   .     S
C37    C38     1.431   .     A
C37    C42     1.428   .     A
C37    C47     1.424   .     A
C38    C39     1.428   .     A
C38    C50     1.424   .     A
C39    C40     1.433   .     A
C39    C46     1.426   .     A
C40    C41     1.426   .     A
C40    C43     1.426   .     A
C41    C42     1.433   .     A
C41    C54     1.426   .     A
C42    C51     1.426   .     A
C43    C44     1.388   .     A
C43    H13     1.074   .     S
C44    C45     1.359   .     A
C44    O13     1.382   .     S
C45    C46     1.388   .     A
C45    O14     1.382   .     S
C46    H14     1.074   .     S
C47    C48     1.389   .     A
C47    H15     1.074   .     S
C48    C49     1.396   .     A
C48    O15     1.396   .     S
C49    C50     1.389   .     A
C49    O16     1.396   .     S
C50    H16     1.074   .     S
C51    C52     1.388   .     A
C51    H17     1.074   .     S
C52    C53     1.359   .     A
C52    O17     1.382   .     S
C53    C54     1.388   .     A
C53    O18     1.382   .     S
C54    H18     1.074   .     S
O13    Cu2     1.810   .     S
O14    Cu2     1.810   .     S
O15    Zn3     1.798   .     S
O16    Zn3     1.798   .     S
O17    Cu3     1.810   .     S
O18    Cu3     1.810   .     S
C55    C56     1.431   .     A
C55    C60     1.428   .     A
C55    C65     1.424   .     A
C56    C57     1.428   .     A
C56    C68     1.424   .     A
C57    C58     1.433   .     A
C57    C64     1.426   .     A
C58    C59     1.426   .     A
C58    C61     1.426   .     A
C59    C60     1.433   .     A
C59    C72     1.426   .     A
C60    C69     1.426   .     A
C61    C62     1.388   .     A
C61    H19     1.074   .     S
C62    C63     1.359   .     A
C62    O19     1.382   .     S
C63    C64     1.388   .     A
C63    O20     1.382   .     S
C64    H20     1.074   .     S
C65    C66     1.389   .     A
C65    H21     1.074   .     S
C66    C67     1.396   .     A
C66    O21     1.396   .     S
C67    C68     1.389   .     A
C67    O22     1.396   .     S
C68    H22     1.074   .     S
C69    C70     1.388   .     A
C69    H23     1.074   .     S
C70    C71     1.359   .     A
C70    O23     1.382   .     S
C71    C72     1.388   .     A
C71    O24     1.382   .     S
C72    H24     1.074   .     S
O19    Cu4     1.810   .     S
O20    Cu4     1.810   .     S
O21    Zn4     1.798   .     S
O22    Zn4     1.798   .     S
O23    Cu1     1.810   .     S
O24    Cu1     1.810   .     S
C73    C74     1.406   .     A
C73    C78     1.396   .     A
C73    H25     1.083   .     S
C74    C75     1.427   1_554 A
C74    O25     1.395   .     S
C75    C74     1.427   1_556 A
C75    C76     1.406   .     A
C75    O26     1.395   .     S
C76    C77     1.396   .     A
C76    H26     1.083   .     S
C77    C78     1.360   1_556 A
C77    C80     1.377   .     A
C78    C77     1.360   1_554 A
C78    C79     1.377   .     A
C79    N1      1.360   .     A
C79    N8      1.338   .     A
N1     C80     1.360   1_554 A
N1     Ni1     1.895   .     S
C80    N1      1.360   1_556 A
C80    N2      1.338   1_455 A
N2     C80     1.338   1_655 A
N2     C81     1.338   .     A
C81    N3      1.360   1_655 A
C81    C84     1.376   .     A
N3     C81     1.360   1_455 A
N3     C82     1.360   .     A
N3     Ni1     1.896   1_556 S
C82    C83     1.376   .     A
C82    N5      1.338   .     A
C83    C84     1.363   1_455 A
C83    C92     1.399   .     A
C84    C83     1.363   1_655 A
C84    C89     1.399   .     A
N4     C85     1.360   1_554 A
N4     C88     1.360   .     A
N4     Ni1     1.896   .     S
C85    N4      1.360   1_556 A
C85    N5      1.338   .     A
C85    C86     1.377   .     A
C86    C87     1.360   1_556 A
C86    C96     1.396   .     A
C87    C86     1.360   1_554 A
C87    C88     1.377   .     A
C87    C93     1.396   .     A
C88    N7      1.338   1_455 A
C89    C90     1.406   .     A
C89    H27     1.082   .     S
C90    C91     1.388   .     A
C90    O27     1.381   .     S
C91    C92     1.406   1_655 A
C91    O28     1.381   .     S
C92    C91     1.406   1_455 A
C92    H28     1.082   .     S
C93    C94     1.406   .     A
C93    H29     1.083   1_455 S
C94    C95     1.427   1_554 A
C94    O29     1.395   .     S
C95    C94     1.427   1_556 A
C95    C96     1.406   .     A
C95    O30     1.395   .     S
C96    H30     1.083   .     S
N6     C97     1.360   1_455 A
N6     C100    1.360   .     A
N6     Ni1     1.896   .     S
C97    N6      1.360   1_655 A
C97    N7      1.338   .     A
C97    C98     1.376   1_655 A
N7     C88     1.338   1_655 A
C98    C97     1.376   1_455 A
C98    C99     1.363   .     A
C98    C104    1.399   1_455 A
C99    C100    1.376   .     A
C99    C101    1.399   .     A
C100   N8      1.338   .     A
C101   C102    1.406   .     A
C101   H31     1.082   .     S
C102   C103    1.388   1_455 A
C102   O31     1.381   1_455 S
C103   C102    1.388   1_655 A
C103   C104    1.406   .     A
C103   O32     1.381   .     S
C104   C98     1.399   1_655 A
C104   H32     1.082   .     S
O25    Zn1     1.802   .     S
O26    Zn1     1.803   1_556 S
O27    Cu5     1.814   .     S
O28    Cu5     1.814   .     S
H29    C93     1.083   1_655 S
O29    Zn2     1.802   .     S
O30    Zn2     1.802   1_556 S
O31    C102    1.381   1_655 S
O31    Cu5     1.814   .     S
O32    Cu5     1.814   .     S
Ni1    N3      1.896   1_554 S
C105   C106    1.406   .     A
C105   C110    1.399   .     A
C105   H33     1.082   .     S
C106   C107    1.388   1_565 A
C106   O33     1.381   .     S
C107   C106    1.388   1_545 A
C107   C108    1.406   .     A
C107   O34     1.381   .     S
C108   C109    1.399   .     A
C108   H34     1.082   .     S
C109   C110    1.363   1_545 A
C109   C112    1.376   .     A
C110   C109    1.363   1_565 A
C110   C111    1.376   .     A
C111   N9      1.360   1_565 A
C111   N16     1.338   .     A
N9     C111    1.360   1_545 A
N9     C112    1.360   .     A
N9     Ni2     1.896   .     S
C112   N10     1.338   .     A
N10    C113    1.338   .     A
C113   N11     1.360   .     A
C113   C116    1.377   .     A
N11    C114    1.360   1_554 A
N11    Ni2     1.896   .     S
C114   N11     1.360   1_556 A
C114   C115    1.377   .     A
C114   N13     1.338   .     A
C115   C116    1.360   1_556 A
C115   C124    1.396   .     A
C116   C115    1.360   1_554 A
C116   C121    1.396   .     A
N12    C117    1.360   .     A
N12    C120    1.360   1_545 A
N12    Ni2     1.896   1_556 S
C117   N13     1.338   .     A
C117   C118    1.376   .     A
C118   C119    1.363   1_545 A
C118   C128    1.399   .     A
C119   C118    1.363   1_565 A
C119   C120    1.376   .     A
C119   C125    1.399   .     A
C120   N12     1.360   1_565 A
C120   N15     1.338   .     A
C121   C122    1.406   .     A
C121   H35     1.083   .     S
C122   C123    1.427   1_554 A
C122   O35     1.395   .     S
C123   C122    1.427   1_556 A
C123   C124    1.406   .     A
C123   O36     1.395   .     S
C124   H36     1.083   .     S
C125   C126    1.406   .     A
C125   H37     1.082   .     S
C126   C127    1.388   1_565 A
C126   O37     1.381   .     S
C127   C126    1.388   1_545 A
C127   C128    1.406   .     A
C127   O38     1.381   .     S
C128   H38     1.082   .     S
N14    C129    1.360   1_554 A
N14    C132    1.360   .     A
N14    Ni2     1.896   1_565 S
C129   N14     1.360   1_556 A
C129   N15     1.338   .     A
C129   C130    1.377   .     A
C130   C131    1.360   1_556 A
C130   C136    1.396   .     A
C131   C130    1.360   1_554 A
C131   C132    1.377   .     A
C131   C133    1.396   .     A
C132   N16     1.338   .     A
C133   C134    1.406   .     A
C133   H39     1.083   .     S
C134   C135    1.427   1_554 A
C134   O39     1.395   .     S
C135   C134    1.427   1_556 A
C135   C136    1.406   .     A
C135   O40     1.395   .     S
C136   H40     1.083   .     S
O33    Cu6     1.814   1_565 S
O34    Cu6     1.814   .     S
O35    Zn4     1.803   .     S
O36    Zn4     1.802   1_556 S
O37    Cu6     1.814   1_565 S
O38    Cu6     1.814   .     S
O39    Zn3     1.803   .     S
O40    Zn3     1.802   1_556 S
Ni2    N14     1.896   1_545 S
Ni2    N12     1.896   1_554 S
Zn1    O3      1.798   1_455 S
Zn1    O26     1.803   1_554 S
Zn2    O9      1.798   1_455 S
Zn2    O30     1.802   1_554 S
Zn3    O40     1.802   1_554 S
Zn4    O36     1.802   1_554 S
Cu6    O37     1.814   1_545 S
Cu6    O33     1.814   1_545 S
