data_tfc-TP_O-PcMN_O-Zntet
_audit_creation_date              2021-11-06
_audit_creation_method            'Materials Studio'
_symmetry_space_group_name_H-M    'P1'
_symmetry_Int_Tables_number       1
_symmetry_cell_setting            triclinic
loop_
_symmetry_equiv_pos_as_xyz
  x,y,z
_cell_length_a                    21.4451
_cell_length_b                    81.5505
_cell_length_c                    22.7689
_cell_angle_alpha                 90.1568
_cell_angle_beta                  89.9998
_cell_angle_gamma                 90.0002
loop_
_atom_site_label
_atom_site_type_symbol
_atom_site_fract_x
_atom_site_fract_y
_atom_site_fract_z
_atom_site_U_iso_or_equiv
_atom_site_adp_type
_atom_site_occupancy
C1     C     0.96671   0.30747   0.01703   0.00000  Uiso   1.00
C2     C     0.03340   0.30747   0.01704   0.00000  Uiso   1.00
C3     C     0.06668   0.29231   0.01683   0.00000  Uiso   1.00
C4     C     0.03332   0.27710   0.01446   0.00000  Uiso   1.00
C5     C     0.96680   0.27710   0.01450   0.00000  Uiso   1.00
C6     C     0.93344   0.29231   0.01679   0.00000  Uiso   1.00
C7     C     0.06828   0.26224   0.01267   0.00000  Uiso   1.00
C8     C     0.13298   0.26250   0.01404   0.00000  Uiso   1.00
C9     C     0.16461   0.27691   0.01735   0.00000  Uiso   1.00
C10    C     0.13309   0.29177   0.01896   0.00000  Uiso   1.00
C11    C     0.93513   0.32283   0.01666   0.00000  Uiso   1.00
C12    C     0.96750   0.33757   0.01682   0.00000  Uiso   1.00
C13    C     0.03262   0.33757   0.01680   0.00000  Uiso   1.00
C14    C     0.06498   0.32282   0.01662   0.00000  Uiso   1.00
C15    C     0.86702   0.29177   0.01880   0.00000  Uiso   1.00
C16    C     0.83551   0.27692   0.01728   0.00000  Uiso   1.00
C17    C     0.86714   0.26250   0.01416   0.00000  Uiso   1.00
C18    C     0.93184   0.26224   0.01288   0.00000  Uiso   1.00
H1     H     0.04764   0.25025   0.01037   0.00000  Uiso   1.00
O1     O     0.16877   0.24841   0.01271   0.00000  Uiso   1.00
O2     O     0.22890   0.27582   0.01906   0.00000  Uiso   1.00
H2     H     0.16226   0.30244   0.02240   0.00000  Uiso   1.00
H3     H     0.88525   0.32401   0.01557   0.00000  Uiso   1.00
O3     O     0.93537   0.35247   0.01656   0.00000  Uiso   1.00
O4     O     0.06476   0.35246   0.01652   0.00000  Uiso   1.00
H4     H     0.11487   0.32400   0.01545   0.00000  Uiso   1.00
H5     H     0.83784   0.30245   0.02205   0.00000  Uiso   1.00
O5     O     0.77121   0.27582   0.01889   0.00000  Uiso   1.00
O6     O     0.83135   0.24841   0.01293   0.00000  Uiso   1.00
H6     H     0.95248   0.25025   0.01080   0.00000  Uiso   1.00
C19    C     0.96671   0.70123   0.01439   0.00000  Uiso   1.00
C20    C     0.03340   0.70123   0.01437   0.00000  Uiso   1.00
C21    C     0.06667   0.71639   0.01463   0.00000  Uiso   1.00
C22    C     0.03331   0.73159   0.01736   0.00000  Uiso   1.00
C23    C     0.96680   0.73159   0.01733   0.00000  Uiso   1.00
C24    C     0.93344   0.71639   0.01468   0.00000  Uiso   1.00
C25    C     0.06829   0.74645   0.01945   0.00000  Uiso   1.00
C26    C     0.13298   0.74620   0.01790   0.00000  Uiso   1.00
C27    C     0.16460   0.73178   0.01407   0.00000  Uiso   1.00
C28    C     0.13307   0.71693   0.01219   0.00000  Uiso   1.00
C29    C     0.93513   0.68588   0.01478   0.00000  Uiso   1.00
C30    C     0.96750   0.67113   0.01457   0.00000  Uiso   1.00
C31    C     0.03262   0.67113   0.01460   0.00000  Uiso   1.00
C32    C     0.06498   0.68588   0.01482   0.00000  Uiso   1.00
C33    C     0.86704   0.71693   0.01237   0.00000  Uiso   1.00
C34    C     0.83551   0.73178   0.01416   0.00000  Uiso   1.00
C35    C     0.86714   0.74620   0.01778   0.00000  Uiso   1.00
C36    C     0.93183   0.74645   0.01923   0.00000  Uiso   1.00
H7     H     0.04765   0.75844   0.02210   0.00000  Uiso   1.00
O7     O     0.16878   0.76028   0.01950   0.00000  Uiso   1.00
O8     O     0.22888   0.73288   0.01212   0.00000  Uiso   1.00
H8     H     0.16219   0.70626   0.00821   0.00000  Uiso   1.00
H9     H     0.88524   0.68470   0.01603   0.00000  Uiso   1.00
O9     O     0.93537   0.65623   0.01487   0.00000  Uiso   1.00
O10    O     0.06476   0.65624   0.01492   0.00000  Uiso   1.00
H10    H     0.11487   0.68471   0.01614   0.00000  Uiso   1.00
H11    H     0.83790   0.70626   0.00861   0.00000  Uiso   1.00
O11    O     0.77123   0.73288   0.01232   0.00000  Uiso   1.00
O12    O     0.83133   0.76028   0.01929   0.00000  Uiso   1.00
H12    H     0.95248   0.75844   0.02164   0.00000  Uiso   1.00
C37    C     0.46670   0.80747   0.01742   0.00000  Uiso   1.00
C38    C     0.53339   0.80747   0.01742   0.00000  Uiso   1.00
C39    C     0.56667   0.79231   0.01712   0.00000  Uiso   1.00
C40    C     0.53331   0.77710   0.01444   0.00000  Uiso   1.00
C41    C     0.46680   0.77710   0.01442   0.00000  Uiso   1.00
C42    C     0.43344   0.79231   0.01716   0.00000  Uiso   1.00
C43    C     0.56828   0.76224   0.01251   0.00000  Uiso   1.00
C44    C     0.63297   0.76250   0.01400   0.00000  Uiso   1.00
C45    C     0.66460   0.77691   0.01765   0.00000  Uiso   1.00
C46    C     0.63307   0.79176   0.01946   0.00000  Uiso   1.00
C47    C     0.43511   0.82282   0.01698   0.00000  Uiso   1.00
C48    C     0.46748   0.83757   0.01722   0.00000  Uiso   1.00
C49    C     0.53260   0.83757   0.01724   0.00000  Uiso   1.00
C50    C     0.56497   0.82282   0.01702   0.00000  Uiso   1.00
C51    C     0.36704   0.79177   0.01960   0.00000  Uiso   1.00
C52    C     0.33551   0.77691   0.01774   0.00000  Uiso   1.00
C53    C     0.36713   0.76250   0.01391   0.00000  Uiso   1.00
C54    C     0.43183   0.76225   0.01236   0.00000  Uiso   1.00
H13    H     0.54764   0.75025   0.01008   0.00000  Uiso   1.00
O13    O     0.66877   0.74841   0.01252   0.00000  Uiso   1.00
O14    O     0.72888   0.77581   0.01953   0.00000  Uiso   1.00
H14    H     0.66221   0.80244   0.02326   0.00000  Uiso   1.00
H15    H     0.38523   0.82399   0.01566   0.00000  Uiso   1.00
O15    O     0.43534   0.85246   0.01692   0.00000  Uiso   1.00
O16    O     0.56474   0.85246   0.01696   0.00000  Uiso   1.00
H16    H     0.61485   0.82399   0.01576   0.00000  Uiso   1.00
H17    H     0.33791   0.80244   0.02351   0.00000  Uiso   1.00
O17    O     0.27123   0.77581   0.01967   0.00000  Uiso   1.00
O18    O     0.33133   0.74842   0.01229   0.00000  Uiso   1.00
H18    H     0.45246   0.75026   0.00971   0.00000  Uiso   1.00
C55    C     0.46670   0.20122   0.01482   0.00000  Uiso   1.00
C56    C     0.53339   0.20122   0.01483   0.00000  Uiso   1.00
C57    C     0.56667   0.21638   0.01504   0.00000  Uiso   1.00
C58    C     0.53331   0.23159   0.01729   0.00000  Uiso   1.00
C59    C     0.46680   0.23159   0.01730   0.00000  Uiso   1.00
C60    C     0.43343   0.21638   0.01500   0.00000  Uiso   1.00
C61    C     0.56827   0.24646   0.01889   0.00000  Uiso   1.00
C62    C     0.63297   0.24620   0.01761   0.00000  Uiso   1.00
C63    C     0.66461   0.23178   0.01452   0.00000  Uiso   1.00
C64    C     0.63309   0.21692   0.01303   0.00000  Uiso   1.00
C65    C     0.43512   0.18587   0.01522   0.00000  Uiso   1.00
C66    C     0.46748   0.17112   0.01503   0.00000  Uiso   1.00
C67    C     0.53260   0.17112   0.01500   0.00000  Uiso   1.00
C68    C     0.56497   0.18587   0.01519   0.00000  Uiso   1.00
C69    C     0.36702   0.21692   0.01287   0.00000  Uiso   1.00
C70    C     0.33550   0.23178   0.01441   0.00000  Uiso   1.00
C71    C     0.36713   0.24619   0.01769   0.00000  Uiso   1.00
C72    C     0.43183   0.24645   0.01903   0.00000  Uiso   1.00
H19    H     0.54763   0.25845   0.02093   0.00000  Uiso   1.00
O19    O     0.66876   0.26029   0.01883   0.00000  Uiso   1.00
O20    O     0.72890   0.23287   0.01287   0.00000  Uiso   1.00
H20    H     0.66227   0.20625   0.00979   0.00000  Uiso   1.00
H21    H     0.38523   0.18469   0.01638   0.00000  Uiso   1.00
O21    O     0.43535   0.15623   0.01534   0.00000  Uiso   1.00
O22    O     0.56474   0.15623   0.01529   0.00000  Uiso   1.00
H22    H     0.61485   0.18469   0.01627   0.00000  Uiso   1.00
H23    H     0.33785   0.20625   0.00950   0.00000  Uiso   1.00
O23    O     0.27122   0.23287   0.01270   0.00000  Uiso   1.00
O24    O     0.33134   0.26029   0.01903   0.00000  Uiso   1.00
H24    H     0.45247   0.25844   0.02130   0.00000  Uiso   1.00
C73    C     0.00006   0.44005   0.95335   0.00000  Uiso   1.00
C74    C     0.00005   0.42509   0.98444   0.00000  Uiso   1.00
C75    C     0.00006   0.42517   0.04731   0.00000  Uiso   1.00
C76    C     0.00005   0.44019   0.07820   0.00000  Uiso   1.00
C77    C     0.00004   0.45463   0.04553   0.00000  Uiso   1.00
C78    C     0.00005   0.45457   0.98586   0.00000  Uiso   1.00
C79    C     0.00004   0.47075   0.96876   0.00000  Uiso   1.00
N1     N     0.00005   0.48111   0.01567   0.00000  Uiso   1.00
C80    C     0.00004   0.47083   0.06256   0.00000  Uiso   1.00
N2     N     0.00005   0.47562   0.11881   0.00000  Uiso   1.00
C81    C     0.00005   0.49134   0.13584   0.00000  Uiso   1.00
N3     N     0.00004   0.50441   0.09896   0.00000  Uiso   1.00
C82    C     0.00004   0.51753   0.13595   0.00000  Uiso   1.00
C83    C     0.00005   0.51279   0.19397   0.00000  Uiso   1.00
C84    C     0.00005   0.49612   0.19384   0.00000  Uiso   1.00
N4     N     0.00005   0.52759   0.01579   0.00000  Uiso   1.00
C85    C     0.00004   0.53794   0.06270   0.00000  Uiso   1.00
N5     N     0.00004   0.53323   0.11897   0.00000  Uiso   1.00
C86    C     0.00005   0.55413   0.04560   0.00000  Uiso   1.00
C87    C     0.00004   0.55407   0.98594   0.00000  Uiso   1.00
C88    C     0.00004   0.53786   0.96890   0.00000  Uiso   1.00
C89    C     0.00005   0.48701   0.24555   0.00000  Uiso   1.00
C90    C     0.00003   0.49565   0.29930   0.00000  Uiso   1.00
C91    C     0.00004   0.51324   0.29951   0.00000  Uiso   1.00
C92    C     0.00004   0.52190   0.24591   0.00000  Uiso   1.00
C93    C     0.00005   0.56850   0.95326   0.00000  Uiso   1.00
C94    C     0.00006   0.58353   0.98414   0.00000  Uiso   1.00
C95    C     0.00005   0.58361   0.04702   0.00000  Uiso   1.00
C96    C     0.00006   0.56865   0.07811   0.00000  Uiso   1.00
N6     N     0.00004   0.50428   0.93251   0.00000  Uiso   1.00
C97    C     0.00005   0.51736   0.89563   0.00000  Uiso   1.00
N7     N     0.00005   0.53307   0.91266   0.00000  Uiso   1.00
C98    C     0.00006   0.51257   0.83763   0.00000  Uiso   1.00
C99    C     0.00005   0.49591   0.83751   0.00000  Uiso   1.00
C100   C     0.00004   0.49117   0.89552   0.00000  Uiso   1.00
C101   C     0.00005   0.48680   0.78556   0.00000  Uiso   1.00
C102   C     0.00004   0.49546   0.73196   0.00000  Uiso   1.00
C103   C     0.00003   0.51305   0.73217   0.00000  Uiso   1.00
C104   C     0.00005   0.52168   0.78592   0.00000  Uiso   1.00
N8     N     0.00004   0.47546   0.91249   0.00000  Uiso   1.00
H25    H     0.00007   0.44035   0.90578   0.00000  Uiso   1.00
H26    H     0.00006   0.44061   0.12577   0.00000  Uiso   1.00
H27    H     0.00005   0.47373   0.24410   0.00000  Uiso   1.00
H28    H     0.00002   0.53518   0.24477   0.00000  Uiso   1.00
H29    H     0.00007   0.56808   0.90569   0.00000  Uiso   1.00
H30    H     0.00007   0.56835   0.12568   0.00000  Uiso   1.00
H31    H     0.00002   0.47352   0.78670   0.00000  Uiso   1.00
H32    H     0.00005   0.53497   0.78736   0.00000  Uiso   1.00
C105   C     0.00004   0.48699   0.67812   0.00000  Uiso   1.00
C106   C     0.00003   0.49586   0.62573   0.00000  Uiso   1.00
C107   C     0.00001   0.51272   0.62598   0.00000  Uiso   1.00
C108   C     0.00001   0.52155   0.67859   0.00000  Uiso   1.00
C109   C     0.00005   0.41009   0.95408   0.00000  Uiso   1.00
C110   C     0.00006   0.39534   0.98511   0.00000  Uiso   1.00
C111   C     0.00008   0.39542   0.04713   0.00000  Uiso   1.00
C112   C     0.00008   0.41026   0.07791   0.00000  Uiso   1.00
C113   C     0.00001   0.48714   0.35287   0.00000  Uiso   1.00
C114   C     0.00001   0.49598   0.40549   0.00000  Uiso   1.00
C115   C     0.00003   0.51283   0.40573   0.00000  Uiso   1.00
C116   C     0.00004   0.52170   0.35335   0.00000  Uiso   1.00
C117   C     0.00008   0.59844   0.95354   0.00000  Uiso   1.00
C118   C     0.00008   0.61327   0.98432   0.00000  Uiso   1.00
C119   C     0.00006   0.61336   0.04634   0.00000  Uiso   1.00
C120   C     0.00005   0.59860   0.07737   0.00000  Uiso   1.00
H33    H     0.00005   0.47371   0.67677   0.00000  Uiso   1.00
O25    O     0.00004   0.48843   0.57114   0.00000  Uiso   1.00
O26    O     0.00001   0.52020   0.57163   0.00000  Uiso   1.00
H34    H    -0.00000   0.53483   0.67761   0.00000  Uiso   1.00
H35    H     0.00004   0.40982   0.90649   0.00000  Uiso   1.00
O27    O     0.00006   0.38039   0.95512   0.00000  Uiso   1.00
O28    O     0.00010   0.38057   0.07739   0.00000  Uiso   1.00
H36    H     0.00009   0.41012   0.12550   0.00000  Uiso   1.00
H37    H    -0.00000   0.47386   0.35385   0.00000  Uiso   1.00
O29    O     0.00001   0.48849   0.45984   0.00000  Uiso   1.00
O30    O     0.00004   0.52026   0.46033   0.00000  Uiso   1.00
H38    H     0.00005   0.53498   0.35471   0.00000  Uiso   1.00
H39    H     0.00009   0.59857   0.90595   0.00000  Uiso   1.00
O31    O     0.00010   0.62813   0.95406   0.00000  Uiso   1.00
O32    O     0.00006   0.62831   0.07633   0.00000  Uiso   1.00
H40    H     0.00004   0.59888   0.12496   0.00000  Uiso   1.00
Ni1    Ni    0.00003   0.50435   0.01573   0.00000  Uiso   1.00
C121   C     0.50006   0.06865   0.07848   0.00000  Uiso   1.00
C122   C     0.50005   0.08360   0.04739   0.00000  Uiso   1.00
C123   C     0.50004   0.08352   0.98451   0.00000  Uiso   1.00
C124   C     0.50003   0.06850   0.95363   0.00000  Uiso   1.00
C125   C     0.50006   0.05407   0.98631   0.00000  Uiso   1.00
C126   C     0.50006   0.05413   0.04598   0.00000  Uiso   1.00
C127   C     0.50006   0.03794   0.06308   0.00000  Uiso   1.00
N9     N     0.50004   0.02759   0.01618   0.00000  Uiso   1.00
C128   C     0.50006   0.03786   0.96929   0.00000  Uiso   1.00
N10    N     0.50004   0.03307   0.91304   0.00000  Uiso   1.00
C129   C     0.50004   0.01735   0.89602   0.00000  Uiso   1.00
N11    N     0.50004   0.00428   0.93290   0.00000  Uiso   1.00
C130   C     0.50003   0.99116   0.89591   0.00000  Uiso   1.00
C131   C     0.50003   0.99590   0.83789   0.00000  Uiso   1.00
C132   C     0.50005   0.01257   0.83802   0.00000  Uiso   1.00
N12    N     0.50004   0.98110   0.01606   0.00000  Uiso   1.00
C133   C     0.50006   0.97075   0.96915   0.00000  Uiso   1.00
N13    N     0.50004   0.97546   0.91288   0.00000  Uiso   1.00
C134   C     0.50006   0.95456   0.98626   0.00000  Uiso   1.00
C135   C     0.50006   0.95462   0.04592   0.00000  Uiso   1.00
C136   C     0.50006   0.97083   0.06295   0.00000  Uiso   1.00
C137   C     0.50007   0.02168   0.78631   0.00000  Uiso   1.00
C138   C     0.50005   0.01304   0.73256   0.00000  Uiso   1.00
C139   C     0.50005   0.99545   0.73235   0.00000  Uiso   1.00
C140   C     0.50003   0.98679   0.78595   0.00000  Uiso   1.00
C141   C     0.50003   0.94019   0.07860   0.00000  Uiso   1.00
C142   C     0.50004   0.92517   0.04773   0.00000  Uiso   1.00
C143   C     0.50005   0.92508   0.98485   0.00000  Uiso   1.00
C144   C     0.50006   0.94004   0.95376   0.00000  Uiso   1.00
N14    N     0.50004   0.00441   0.09934   0.00000  Uiso   1.00
C145   C     0.50004   0.99134   0.13623   0.00000  Uiso   1.00
N15    N     0.50005   0.97562   0.11920   0.00000  Uiso   1.00
C146   C     0.50005   0.99612   0.19423   0.00000  Uiso   1.00
C147   C     0.50003   0.01279   0.19435   0.00000  Uiso   1.00
C148   C     0.50003   0.01753   0.13633   0.00000  Uiso   1.00
C149   C     0.50003   0.02190   0.24629   0.00000  Uiso   1.00
C150   C     0.50005   0.01324   0.29989   0.00000  Uiso   1.00
C151   C     0.50005   0.99565   0.29968   0.00000  Uiso   1.00
C152   C     0.50008   0.98701   0.24593   0.00000  Uiso   1.00
N16    N     0.50004   0.03323   0.11935   0.00000  Uiso   1.00
H41    H     0.50005   0.06835   0.12606   0.00000  Uiso   1.00
H42    H     0.50000   0.06808   0.90606   0.00000  Uiso   1.00
H43    H     0.50009   0.03496   0.78774   0.00000  Uiso   1.00
H44    H     0.50004   0.97351   0.78708   0.00000  Uiso   1.00
H45    H     0.50000   0.94061   0.12618   0.00000  Uiso   1.00
H46    H     0.50005   0.94034   0.90618   0.00000  Uiso   1.00
H47    H     0.50004   0.03518   0.24515   0.00000  Uiso   1.00
H48    H     0.50009   0.97373   0.24449   0.00000  Uiso   1.00
C153   C     0.50007   0.02171   0.35374   0.00000  Uiso   1.00
C154   C     0.50004   0.01283   0.40612   0.00000  Uiso   1.00
C155   C     0.50005   0.99598   0.40587   0.00000  Uiso   1.00
C156   C     0.50003   0.98715   0.35326   0.00000  Uiso   1.00
C157   C     0.50005   0.09860   0.07775   0.00000  Uiso   1.00
C158   C     0.50005   0.11336   0.04672   0.00000  Uiso   1.00
C159   C     0.50004   0.11327   0.98470   0.00000  Uiso   1.00
C160   C     0.50003   0.09843   0.95392   0.00000  Uiso   1.00
C161   C     0.50003   0.02154   0.67899   0.00000  Uiso   1.00
C162   C     0.50004   0.01271   0.62637   0.00000  Uiso   1.00
C163   C     0.50004   0.99586   0.62612   0.00000  Uiso   1.00
C164   C     0.50007   0.98698   0.67850   0.00000  Uiso   1.00
C165   C     0.50003   0.91026   0.07832   0.00000  Uiso   1.00
C166   C     0.50004   0.89542   0.04755   0.00000  Uiso   1.00
C167   C     0.50005   0.89533   0.98552   0.00000  Uiso   1.00
C168   C     0.50005   0.91009   0.95449   0.00000  Uiso   1.00
H49    H     0.50008   0.03499   0.35510   0.00000  Uiso   1.00
O33    O     0.50003   0.02026   0.46072   0.00000  Uiso   1.00
O34    O     0.50005   0.98849   0.46022   0.00000  Uiso   1.00
H50    H     0.50003   0.97386   0.35423   0.00000  Uiso   1.00
H51    H     0.50005   0.09887   0.12533   0.00000  Uiso   1.00
O35    O     0.50007   0.12830   0.07672   0.00000  Uiso   1.00
O36    O     0.50003   0.12813   0.95445   0.00000  Uiso   1.00
H52    H     0.50003   0.09857   0.90632   0.00000  Uiso   1.00
H53    H     0.50003   0.03482   0.67801   0.00000  Uiso   1.00
O37    O     0.50005   0.02020   0.57202   0.00000  Uiso   1.00
O38    O     0.50003   0.98843   0.57152   0.00000  Uiso   1.00
H54    H     0.50008   0.97370   0.67714   0.00000  Uiso   1.00
H55    H     0.50003   0.91012   0.12592   0.00000  Uiso   1.00
O39    O     0.50003   0.88056   0.07780   0.00000  Uiso   1.00
O40    O     0.50007   0.88039   0.95553   0.00000  Uiso   1.00
H56    H     0.50005   0.90982   0.90691   0.00000  Uiso   1.00
Ni2    Ni    0.50003   0.00434   0.01612   0.00000  Uiso   1.00
Zn1    Zn    0.00007   0.36649   0.01640   0.00000  Uiso   1.00
Zn2    Zn    0.00007   0.64221   0.01505   0.00000  Uiso   1.00
Zn3    Zn    0.50005   0.86648   0.01680   0.00000  Uiso   1.00
Zn4    Zn    0.50005   0.14221   0.01546   0.00000  Uiso   1.00
Cu1    Cu    0.25006   0.25435   0.01587   0.00000  Uiso   1.00
Cu2    Cu    0.75005   0.75435   0.01591   0.00000  Uiso   1.00
Cu3    Cu    0.25006   0.75435   0.01588   0.00000  Uiso   1.00
Cu4    Cu    0.75006   0.25435   0.01588   0.00000  Uiso   1.00
Cu5    Cu    0.00002   0.50435   0.51573   0.00000  Uiso   1.00
Cu6    Cu    0.50004   0.00434   0.51612   0.00000  Uiso   1.00
loop_
_geom_bond_atom_site_label_1
_geom_bond_atom_site_label_2
_geom_bond_distance
_geom_bond_site_symmetry_2
_ccdc_geom_bond_type
C1     C2      1.430   1_655 A
C1     C6      1.427   .     A
C1     C11     1.424   .     A
C2     C1      1.430   1_455 A
C2     C3      1.428   .     A
C2     C14     1.423   .     A
C3     C4      1.433   .     A
C3     C10     1.426   .     A
C4     C5      1.426   1_455 A
C4     C7      1.426   .     A
C5     C4      1.426   1_655 A
C5     C6      1.433   .     A
C5     C18     1.426   .     A
C6     C15     1.426   .     A
C7     C8      1.388   .     A
C7     H1      1.075   .     S
C8     C9      1.359   .     A
C8     O1      1.382   .     S
C9     C10     1.388   .     A
C9     O2      1.382   .     S
C10    H2      1.075   .     S
C11    C12     1.389   .     A
C11    H3      1.074   .     S
C12    C13     1.397   1_655 A
C12    O3      1.396   .     S
C13    C12     1.397   1_455 A
C13    C14     1.389   .     A
C13    O4      1.396   .     S
C14    H4      1.074   .     S
C15    C16     1.388   .     A
C15    H5      1.075   .     S
C16    C17     1.359   .     A
C16    O5      1.382   .     S
C17    C18     1.388   .     A
C17    O6      1.382   .     S
C18    H6      1.075   .     S
O1     Cu1     1.811   .     S
O2     Cu1     1.810   .     S
O3     Zn1     1.798   1_655 S
O4     Zn1     1.798   .     S
O5     Cu4     1.810   .     S
O6     Cu4     1.811   .     S
C19    C20     1.430   1_655 A
C19    C24     1.427   .     A
C19    C29     1.424   .     A
C20    C19     1.430   1_455 A
C20    C21     1.427   .     A
C20    C32     1.423   .     A
C21    C22     1.433   .     A
C21    C28     1.426   .     A
C22    C23     1.426   1_455 A
C22    C25     1.426   .     A
C23    C22     1.426   1_655 A
C23    C24     1.433   .     A
C23    C36     1.426   .     A
C24    C33     1.426   .     A
C25    C26     1.388   .     A
C25    H7      1.075   .     S
C26    C27     1.359   .     A
C26    O7      1.382   .     S
C27    C28     1.388   .     A
C27    O8      1.382   .     S
C28    H8      1.075   .     S
C29    C30     1.389   .     A
C29    H9      1.074   .     S
C30    C31     1.397   1_655 A
C30    O9      1.396   .     S
C31    C30     1.397   1_455 A
C31    C32     1.389   .     A
C31    O10     1.396   .     S
C32    H10     1.074   .     S
C33    C34     1.388   .     A
C33    H11     1.075   .     S
C34    C35     1.359   .     A
C34    O11     1.382   .     S
C35    C36     1.388   .     A
C35    O12     1.382   .     S
C36    H12     1.075   .     S
O7     Cu3     1.811   .     S
O8     Cu3     1.810   .     S
O9     Zn2     1.798   1_655 S
O10    Zn2     1.798   .     S
O11    Cu2     1.810   .     S
O12    Cu2     1.811   .     S
C37    C38     1.430   .     A
C37    C42     1.427   .     A
C37    C47     1.424   .     A
C38    C39     1.427   .     A
C38    C50     1.423   .     A
C39    C40     1.433   .     A
C39    C46     1.426   .     A
C40    C41     1.426   .     A
C40    C43     1.426   .     A
C41    C42     1.433   .     A
C41    C54     1.426   .     A
C42    C51     1.426   .     A
C43    C44     1.388   .     A
C43    H13     1.075   .     S
C44    C45     1.359   .     A
C44    O13     1.382   .     S
C45    C46     1.388   .     A
C45    O14     1.382   .     S
C46    H14     1.075   .     S
C47    C48     1.389   .     A
C47    H15     1.075   .     S
C48    C49     1.397   .     A
C48    O15     1.396   .     S
C49    C50     1.389   .     A
C49    O16     1.396   .     S
C50    H16     1.074   .     S
C51    C52     1.388   .     A
C51    H17     1.075   .     S
C52    C53     1.359   .     A
C52    O17     1.382   .     S
C53    C54     1.388   .     A
C53    O18     1.382   .     S
C54    H18     1.075   .     S
O13    Cu2     1.811   .     S
O14    Cu2     1.810   .     S
O15    Zn3     1.798   .     S
O16    Zn3     1.798   .     S
O17    Cu3     1.810   .     S
O18    Cu3     1.811   .     S
C55    C56     1.430   .     A
C55    C60     1.427   .     A
C55    C65     1.424   .     A
C56    C57     1.428   .     A
C56    C68     1.423   .     A
C57    C58     1.433   .     A
C57    C64     1.426   .     A
C58    C59     1.426   .     A
C58    C61     1.426   .     A
C59    C60     1.433   .     A
C59    C72     1.426   .     A
C60    C69     1.426   .     A
C61    C62     1.388   .     A
C61    H19     1.075   .     S
C62    C63     1.359   .     A
C62    O19     1.382   .     S
C63    C64     1.388   .     A
C63    O20     1.382   .     S
C64    H20     1.075   .     S
C65    C66     1.389   .     A
C65    H21     1.074   .     S
C66    C67     1.397   .     A
C66    O21     1.396   .     S
C67    C68     1.389   .     A
C67    O22     1.396   .     S
C68    H22     1.074   .     S
C69    C70     1.388   .     A
C69    H23     1.075   .     S
C70    C71     1.359   .     A
C70    O23     1.382   .     S
C71    C72     1.388   .     A
C71    O24     1.382   .     S
C72    H24     1.075   .     S
O19    Cu4     1.811   .     S
O20    Cu4     1.810   .     S
O21    Zn4     1.798   .     S
O22    Zn4     1.798   .     S
O23    Cu1     1.810   .     S
O24    Cu1     1.811   .     S
C73    C74     1.412   .     A
C73    C78     1.395   .     A
C73    H25     1.084   .     S
C74    C75     1.432   1_556 A
C74    C109    1.403   .     A
C75    C74     1.432   1_554 A
C75    C76     1.411   .     A
C75    C112    1.403   .     A
C76    C77     1.394   .     A
C76    H26     1.084   .     S
C77    C78     1.358   1_554 A
C77    C80     1.376   .     A
C78    C77     1.358   1_556 A
C78    C79     1.377   .     A
C79    N1      1.360   1_556 A
C79    N8      1.339   .     A
N1     C79     1.360   1_554 A
N1     C80     1.359   .     A
N1     Ni1     1.895   .     S
C80    N2      1.338   .     A
N2     C81     1.338   .     A
C81    N3      1.359   .     A
C81    C84     1.376   .     A
N3     C82     1.360   .     A
N3     Ni1     1.895   .     S
C82    C83     1.378   .     A
C82    N5      1.339   .     A
C83    C84     1.359   .     A
C83    C92     1.395   .     A
C84    C89     1.394   .     A
N4     C85     1.360   .     A
N4     C88     1.359   1_554 A
N4     Ni1     1.895   .     S
C85    N5      1.339   .     A
C85    C86     1.378   .     A
C86    C87     1.358   1_554 A
C86    C96     1.395   .     A
C87    C86     1.358   1_556 A
C87    C88     1.376   .     A
C87    C93     1.394   .     A
C88    N4      1.359   1_556 A
C88    N7      1.338   .     A
C89    C90     1.410   .     A
C89    H27     1.084   .     S
C90    C91     1.435   .     A
C90    C113    1.405   .     A
C91    C92     1.412   .     A
C91    C116    1.405   .     A
C92    H28     1.084   .     S
C93    C94     1.411   .     A
C93    H29     1.084   .     S
C94    C95     1.432   1_556 A
C94    C117    1.403   .     A
C95    C94     1.432   1_554 A
C95    C96     1.412   .     A
C95    C120    1.403   .     A
C96    H30     1.084   .     S
N6     C97     1.359   .     A
N6     C100    1.360   .     A
N6     Ni1     1.895   1_556 S
C97    N7      1.338   .     A
C97    C98     1.376   .     A
C98    C99     1.359   .     A
C98    C104    1.394   .     A
C99    C100    1.377   .     A
C99    C101    1.395   .     A
C100   N8      1.339   .     A
C101   C102    1.412   .     A
C101   H31     1.084   .     S
C102   C103    1.435   .     A
C102   C105    1.405   .     A
C103   C104    1.410   .     A
C103   C108    1.405   .     A
C104   H32     1.084   .     S
C105   C106    1.397   .     A
C105   H33     1.083   .     S
C106   C107    1.374   .     A
C106   O25     1.381   .     S
C107   C108    1.396   .     A
C107   O26     1.381   .     S
C108   H34     1.083   .     S
C109   C110    1.397   .     A
C109   H35     1.084   .     S
C110   C111    1.412   1_556 A
C110   O27     1.395   .     S
C111   C110    1.412   1_554 A
C111   C112    1.397   .     A
C111   O28     1.395   .     S
C112   H36     1.084   .     S
C113   C114    1.396   .     A
C113   H37     1.083   .     S
C114   C115    1.374   .     A
C114   O29     1.381   .     S
C115   C116    1.397   .     A
C115   O30     1.381   .     S
C116   H38     1.083   .     S
C117   C118    1.397   .     A
C117   H39     1.084   .     S
C118   C119    1.412   1_556 A
C118   O31     1.395   .     S
C119   C118    1.412   1_554 A
C119   C120    1.397   .     A
C119   O32     1.395   .     S
C120   H40     1.084   .     S
O25    Cu5     1.812   .     S
O26    Cu5     1.812   .     S
O27    Zn1     1.800   1_556 S
O28    Zn1     1.800   .     S
O29    Cu5     1.812   .     S
O30    Cu5     1.812   .     S
O31    Zn2     1.800   1_556 S
O32    Zn2     1.800   .     S
Ni1    N6      1.895   1_554 S
C121   C122    1.412   .     A
C121   C126    1.395   .     A
C121   H41     1.084   .     S
C122   C123    1.432   1_554 A
C122   C157    1.403   .     A
C123   C122    1.432   1_556 A
C123   C124    1.411   .     A
C123   C160    1.403   .     A
C124   C125    1.394   .     A
C124   H42     1.084   .     S
C125   C126    1.358   1_556 A
C125   C128    1.376   .     A
C126   C125    1.358   1_554 A
C126   C127    1.377   .     A
C127   N9      1.360   .     A
C127   N16     1.339   .     A
N9     C128    1.359   1_554 A
N9     Ni2     1.895   .     S
C128   N9      1.359   1_556 A
C128   N10     1.338   .     A
N10    C129    1.338   .     A
C129   N11     1.359   .     A
C129   C132    1.376   .     A
N11    C130    1.360   1_545 A
N11    Ni2     1.895   1_556 S
C130   N11     1.360   1_565 A
C130   C131    1.377   .     A
C130   N13     1.339   .     A
C131   C132    1.359   1_565 A
C131   C140    1.395   .     A
C132   C131    1.359   1_545 A
C132   C137    1.394   .     A
N12    C133    1.360   1_554 A
N12    C136    1.359   .     A
N12    Ni2     1.895   1_565 S
C133   N12     1.360   1_556 A
C133   N13     1.339   .     A
C133   C134    1.377   .     A
C134   C135    1.358   1_556 A
C134   C144    1.395   .     A
C135   C134    1.358   1_554 A
C135   C136    1.376   .     A
C135   C141    1.394   .     A
C136   N15     1.338   .     A
C137   C138    1.410   .     A
C137   H43     1.084   .     S
C138   C139    1.435   1_545 A
C138   C161    1.405   .     A
C139   C138    1.435   1_565 A
C139   C140    1.412   .     A
C139   C164    1.405   .     A
C140   H44     1.084   .     S
C141   C142    1.411   .     A
C141   H45     1.084   .     S
C142   C143    1.432   1_554 A
C142   C165    1.403   .     A
C143   C142    1.432   1_556 A
C143   C144    1.412   .     A
C143   C168    1.403   .     A
C144   H46     1.084   .     S
N14    C145    1.359   1_545 A
N14    C148    1.360   .     A
N14    Ni2     1.895   .     S
C145   N14     1.359   1_565 A
C145   N15     1.338   .     A
C145   C146    1.376   .     A
C146   C147    1.359   1_565 A
C146   C152    1.394   .     A
C147   C146    1.359   1_545 A
C147   C148    1.377   .     A
C147   C149    1.395   .     A
C148   N16     1.338   .     A
C149   C150    1.412   .     A
C149   H47     1.084   .     S
C150   C151    1.435   1_545 A
C150   C153    1.405   .     A
C151   C150    1.435   1_565 A
C151   C152    1.410   .     A
C151   C156    1.405   .     A
C152   H48     1.084   .     S
C153   C154    1.397   .     A
C153   H49     1.083   .     S
C154   C155    1.374   1_545 A
C154   O33     1.381   .     S
C155   C154    1.374   1_565 A
C155   C156    1.396   .     A
C155   O34     1.381   .     S
C156   H50     1.083   .     S
C157   C158    1.397   .     A
C157   H51     1.084   .     S
C158   C159    1.412   1_554 A
C158   O35     1.395   .     S
C159   C158    1.412   1_556 A
C159   C160    1.397   .     A
C159   O36     1.395   .     S
C160   H52     1.084   .     S
C161   C162    1.396   .     A
C161   H53     1.083   .     S
C162   C163    1.374   1_545 A
C162   O37     1.381   .     S
C163   C162    1.374   1_565 A
C163   C164    1.397   .     A
C163   O38     1.381   .     S
C164   H54     1.083   .     S
C165   C166    1.397   .     A
C165   H55     1.084   .     S
C166   C167    1.412   1_554 A
C166   O39     1.395   .     S
C167   C166    1.412   1_556 A
C167   C168    1.397   .     A
C167   O40     1.395   .     S
C168   H56     1.084   .     S
O33    Cu6     1.812   .     S
O34    Cu6     1.812   1_565 S
O35    Zn4     1.800   .     S
O36    Zn4     1.800   1_556 S
O37    Cu6     1.812   .     S
O38    Cu6     1.812   1_565 S
O39    Zn3     1.800   .     S
O40    Zn3     1.800   1_556 S
Ni2    N12     1.895   1_545 S
Ni2    N11     1.895   1_554 S
Zn1    O3      1.798   1_455 S
Zn1    O27     1.800   1_554 S
Zn2    O9      1.798   1_455 S
Zn2    O31     1.800   1_554 S
Zn3    O40     1.800   1_554 S
Zn4    O36     1.800   1_554 S
Cu6    O34     1.812   1_545 S
Cu6    O38     1.812   1_545 S
