data_tfc-B_O-PcM_O-Zntet
_audit_creation_date              2021-11-06
_audit_creation_method            'Materials Studio'
_symmetry_space_group_name_H-M    'P1'
_symmetry_Int_Tables_number       1
_symmetry_cell_setting            triclinic
loop_
_symmetry_equiv_pos_as_xyz
  x,y,z
_cell_length_a                    12.8364
_cell_length_b                    56.9949
_cell_length_c                    17.9084
_cell_angle_alpha                 90.0022
_cell_angle_beta                  89.7533
_cell_angle_gamma                 90.0190
loop_
_atom_site_label
_atom_site_type_symbol
_atom_site_fract_x
_atom_site_fract_y
_atom_site_fract_z
_atom_site_U_iso_or_equiv
_atom_site_adp_type
_atom_site_occupancy
C1     C     0.89156   0.29192   0.00039   0.00000  Uiso   1.00
C2     C     0.94485   0.31339   0.00036   0.00000  Uiso   1.00
C3     C     0.05526   0.31339   0.00031   0.00000  Uiso   1.00
C4     C     0.10846   0.29192   0.00032   0.00000  Uiso   1.00
C5     C     0.05443   0.27104   0.00038   0.00000  Uiso   1.00
C6     C     0.94554   0.27104   0.00039   0.00000  Uiso   1.00
O1     O     0.78424   0.29016   0.00044   0.00000  Uiso   1.00
O2     O     0.89121   0.33467   0.00042   0.00000  Uiso   1.00
O3     O     0.10899   0.33466   0.00025   0.00000  Uiso   1.00
O4     O     0.21578   0.29016   0.00032   0.00000  Uiso   1.00
O5     O     0.11376   0.25084   0.00042   0.00000  Uiso   1.00
O6     O     0.88615   0.25084   0.00041   0.00000  Uiso   1.00
C7     C     0.89146   0.72666   0.00047   0.00000  Uiso   1.00
C8     C     0.94468   0.70518   0.00044   0.00000  Uiso   1.00
C9     C     0.05510   0.70519   0.00037   0.00000  Uiso   1.00
C10    C     0.10836   0.72666   0.00039   0.00000  Uiso   1.00
C11    C     0.05438   0.74754   0.00045   0.00000  Uiso   1.00
C12    C     0.94549   0.74754   0.00048   0.00000  Uiso   1.00
O7     O     0.78414   0.72841   0.00048   0.00000  Uiso   1.00
O8     O     0.89098   0.68390   0.00047   0.00000  Uiso   1.00
O9     O     0.10876   0.68391   0.00028   0.00000  Uiso   1.00
O10    O     0.21568   0.72841   0.00033   0.00000  Uiso   1.00
O11    O     0.11376   0.76774   0.00047   0.00000  Uiso   1.00
O12    O     0.88617   0.76774   0.00049   0.00000  Uiso   1.00
C13    C     0.39156   0.79192   0.00049   0.00000  Uiso   1.00
C14    C     0.44484   0.81339   0.00052   0.00000  Uiso   1.00
C15    C     0.55525   0.81339   0.00043   0.00000  Uiso   1.00
C16    C     0.60845   0.79192   0.00040   0.00000  Uiso   1.00
C17    C     0.55442   0.77104   0.00040   0.00000  Uiso   1.00
C18    C     0.44553   0.77104   0.00043   0.00000  Uiso   1.00
O13    O     0.28424   0.79016   0.00053   0.00000  Uiso   1.00
O14    O     0.39120   0.83467   0.00064   0.00000  Uiso   1.00
O15    O     0.60897   0.83467   0.00037   0.00000  Uiso   1.00
O16    O     0.71577   0.79016   0.00037   0.00000  Uiso   1.00
O17    O     0.61374   0.75084   0.00036   0.00000  Uiso   1.00
O18    O     0.38615   0.75084   0.00041   0.00000  Uiso   1.00
C19    C     0.39146   0.22666   0.00050   0.00000  Uiso   1.00
C20    C     0.44467   0.20519   0.00049   0.00000  Uiso   1.00
C21    C     0.55509   0.20519   0.00041   0.00000  Uiso   1.00
C22    C     0.60835   0.22666   0.00040   0.00000  Uiso   1.00
C23    C     0.55438   0.24754   0.00040   0.00000  Uiso   1.00
C24    C     0.44550   0.24754   0.00043   0.00000  Uiso   1.00
O19    O     0.28415   0.22841   0.00053   0.00000  Uiso   1.00
O20    O     0.39096   0.18391   0.00058   0.00000  Uiso   1.00
O21    O     0.60873   0.18391   0.00036   0.00000  Uiso   1.00
O22    O     0.71567   0.22841   0.00037   0.00000  Uiso   1.00
O23    O     0.61376   0.26774   0.00038   0.00000  Uiso   1.00
O24    O     0.38619   0.26774   0.00040   0.00000  Uiso   1.00
C25    C     0.00001   0.41736   0.07975   0.00000  Uiso   1.00
C26    C     0.00008   0.39605   0.04016   0.00000  Uiso   1.00
C27    C     0.00035   0.39605   0.96051   0.00000  Uiso   1.00
C28    C     0.00047   0.41736   0.92090   0.00000  Uiso   1.00
C29    C     0.00033   0.43810   0.96235   0.00000  Uiso   1.00
C30    C     0.00015   0.43810   0.03831   0.00000  Uiso   1.00
C31    C     0.00009   0.46127   0.05998   0.00000  Uiso   1.00
N1     N     0.00017   0.47603   0.00034   0.00000  Uiso   1.00
C32    C     0.00031   0.46127   0.94069   0.00000  Uiso   1.00
N2     N     1.00035   0.46806   0.86918   0.00000  Uiso   1.00
C33    C     1.00026   0.49053   0.84756   0.00000  Uiso   1.00
N3     N     0.00015   0.50929   0.89451   0.00000  Uiso   1.00
C34    C     0.00008   0.52804   0.84757   0.00000  Uiso   1.00
C35    C     0.00012   0.52125   0.77383   0.00000  Uiso   1.00
C36    C     1.00025   0.49733   0.77383   0.00000  Uiso   1.00
N4     N    -0.00007   0.54254   0.00036   0.00000  Uiso   1.00
C37    C    -0.00000   0.55730   0.94073   0.00000  Uiso   1.00
N5     N     0.00004   0.55051   0.86921   0.00000  Uiso   1.00
C38    C    -0.00006   0.58047   0.96240   0.00000  Uiso   1.00
C39    C    -0.00022   0.58047   0.03835   0.00000  Uiso   1.00
C40    C    -0.00019   0.55730   0.06000   0.00000  Uiso   1.00
C41    C     1.00030   0.48435   0.70757   0.00000  Uiso   1.00
C42    C     1.00020   0.49711   0.64038   0.00000  Uiso   1.00
C43    C     1.00006   0.52147   0.64038   0.00000  Uiso   1.00
C44    C     0.00003   0.53424   0.70758   0.00000  Uiso   1.00
C45    C     0.99967   0.60122   0.07979   0.00000  Uiso   1.00
C46    C    -0.00028   0.62253   0.04020   0.00000  Uiso   1.00
C47    C    -0.00005   0.62253   0.96056   0.00000  Uiso   1.00
C48    C     0.00004   0.60122   0.92097   0.00000  Uiso   1.00
N6     N    -0.00009   0.50928   0.10619   0.00000  Uiso   1.00
C49    C     0.99984   0.52804   0.15314   0.00000  Uiso   1.00
N7     N     0.99977   0.55051   0.13152   0.00000  Uiso   1.00
C50    C     0.99985   0.52124   0.22688   0.00000  Uiso   1.00
C51    C    -0.00005   0.49732   0.22688   0.00000  Uiso   1.00
C52    C    -0.00003   0.49053   0.15313   0.00000  Uiso   1.00
C53    C     0.00001   0.48434   0.29314   0.00000  Uiso   1.00
C54    C     1.00002   0.49711   0.36034   0.00000  Uiso   1.00
C55    C     0.99990   0.52146   0.36035   0.00000  Uiso   1.00
C56    C     0.99981   0.53423   0.29315   0.00000  Uiso   1.00
N8     N     0.00003   0.46806   0.13150   0.00000  Uiso   1.00
H1     H    -0.00017   0.41764   0.14019   0.00000  Uiso   1.00
O25    O    -0.00010   0.37471   0.07828   0.00000  Uiso   1.00
O26    O     0.00050   0.37471   0.92238   0.00000  Uiso   1.00
H2     H     1.00063   0.41764   0.86046   0.00000  Uiso   1.00
H3     H     1.00035   0.46536   0.70786   0.00000  Uiso   1.00
O27    O     1.00016   0.48650   0.57107   0.00000  Uiso   1.00
O28    O     0.99994   0.53207   0.57106   0.00000  Uiso   1.00
H4     H    -0.00009   0.55324   0.70790   0.00000  Uiso   1.00
H5     H     0.99951   0.60094   0.14021   0.00000  Uiso   1.00
O29    O    -0.00044   0.64387   0.07832   0.00000  Uiso   1.00
O30    O     0.00010   0.64386   0.92243   0.00000  Uiso   1.00
H6     H     0.00018   0.60093   0.86054   0.00000  Uiso   1.00
H7     H     0.00007   0.46535   0.29286   0.00000  Uiso   1.00
O31    O     1.00012   0.48650   0.42965   0.00000  Uiso   1.00
O32    O     0.99991   0.53207   0.42966   0.00000  Uiso   1.00
H8     H     0.99977   0.55322   0.29285   0.00000  Uiso   1.00
Ni1    Ni    0.00003   0.50928   0.00035   0.00000  Uiso   1.00
C57    C     0.49996   0.98434   0.29328   0.00000  Uiso   1.00
C58    C     0.49991   0.99711   0.36047   0.00000  Uiso   1.00
C59    C     0.49976   0.02147   0.36048   0.00000  Uiso   1.00
C60    C     0.49965   0.03423   0.29328   0.00000  Uiso   1.00
C61    C     0.49976   0.02125   0.22702   0.00000  Uiso   1.00
C62    C     0.49990   0.99733   0.22702   0.00000  Uiso   1.00
C63    C     0.49997   0.99053   0.15328   0.00000  Uiso   1.00
N9     N     0.49991   0.00929   0.10634   0.00000  Uiso   1.00
C64    C     0.49976   0.02804   0.15328   0.00000  Uiso   1.00
N10    N     0.49965   0.05051   0.13165   0.00000  Uiso   1.00
C65    C     0.49971   0.05730   0.06014   0.00000  Uiso   1.00
N11    N     0.49989   0.04255   0.00049   0.00000  Uiso   1.00
C66    C     0.49996   0.05730   0.94086   0.00000  Uiso   1.00
C67    C     0.49986   0.08048   0.96251   0.00000  Uiso   1.00
C68    C     0.49968   0.08048   0.03848   0.00000  Uiso   1.00
N12    N     0.50013   0.00929   0.89464   0.00000  Uiso   1.00
C69    C     0.50011   0.02804   0.84770   0.00000  Uiso   1.00
N13    N     0.50006   0.05051   0.86934   0.00000  Uiso   1.00
C70    C     0.50012   0.02125   0.77395   0.00000  Uiso   1.00
C71    C     0.50020   0.99733   0.77396   0.00000  Uiso   1.00
C72    C     0.50021   0.99053   0.84770   0.00000  Uiso   1.00
C73    C     0.49956   0.10122   0.07992   0.00000  Uiso   1.00
C74    C     0.49964   0.12253   0.04031   0.00000  Uiso   1.00
C75    C     0.49988   0.12253   0.96066   0.00000  Uiso   1.00
C76    C     0.49999   0.10122   0.92106   0.00000  Uiso   1.00
C77    C     0.50024   0.98434   0.70769   0.00000  Uiso   1.00
C78    C     0.50011   0.99711   0.64049   0.00000  Uiso   1.00
C79    C     0.49998   0.02147   0.64049   0.00000  Uiso   1.00
C80    C     0.50000   0.03424   0.70769   0.00000  Uiso   1.00
N14    N     0.50011   0.97603   0.00048   0.00000  Uiso   1.00
C81    C     0.50025   0.96127   0.94084   0.00000  Uiso   1.00
N15    N     0.50028   0.96806   0.86932   0.00000  Uiso   1.00
C82    C     0.50029   0.93810   0.96250   0.00000  Uiso   1.00
C83    C     0.50019   0.93810   0.03846   0.00000  Uiso   1.00
C84    C     0.50009   0.96127   0.06012   0.00000  Uiso   1.00
C85    C     0.50012   0.91736   0.07991   0.00000  Uiso   1.00
C86    C     0.50013   0.89605   0.04032   0.00000  Uiso   1.00
C87    C     0.50032   0.89605   0.96067   0.00000  Uiso   1.00
C88    C     0.50040   0.91735   0.92106   0.00000  Uiso   1.00
N16    N     0.50003   0.96806   0.13164   0.00000  Uiso   1.00
H9     H     0.50014   0.96535   0.29297   0.00000  Uiso   1.00
O33    O     0.50000   0.98650   0.42978   0.00000  Uiso   1.00
O34    O     0.49971   0.03207   0.42979   0.00000  Uiso   1.00
H10    H     0.49953   0.05322   0.29298   0.00000  Uiso   1.00
H11    H     0.49942   0.10094   0.14037   0.00000  Uiso   1.00
O35    O     0.49949   0.14387   0.07843   0.00000  Uiso   1.00
O36    O     0.50003   0.14387   0.92253   0.00000  Uiso   1.00
H12    H     0.50022   0.10094   0.86061   0.00000  Uiso   1.00
H13    H     0.50032   0.96536   0.70799   0.00000  Uiso   1.00
O37    O     0.50008   0.98650   0.57118   0.00000  Uiso   1.00
O38    O     0.49983   0.03207   0.57118   0.00000  Uiso   1.00
H14    H     0.49987   0.05323   0.70799   0.00000  Uiso   1.00
H15    H     0.49994   0.91765   0.14035   0.00000  Uiso   1.00
O39    O     0.49991   0.87471   0.07845   0.00000  Uiso   1.00
O40    O     0.50042   0.87471   0.92255   0.00000  Uiso   1.00
H16    H     0.50053   0.91763   0.86063   0.00000  Uiso   1.00
Ni2    Ni    0.50000   0.00928   0.00049   0.00000  Uiso   1.00
Zn1    Zn    0.00015   0.35469   0.00033   0.00000  Uiso   1.00
Zn2    Zn   -0.00015   0.66388   0.00036   0.00000  Uiso   1.00
Zn3    Zn    0.50012   0.85470   0.00051   0.00000  Uiso   1.00
Zn4    Zn    0.49981   0.16388   0.00048   0.00000  Uiso   1.00
Cu1    Cu    0.24997   0.25929   0.00040   0.00000  Uiso   1.00
Cu2    Cu    0.74995   0.75929   0.00042   0.00000  Uiso   1.00
Cu3    Cu    0.24996   0.75929   0.00042   0.00000  Uiso   1.00
Cu4    Cu    0.74996   0.25929   0.00038   0.00000  Uiso   1.00
Cu5    Cu    1.00002   0.50928   0.50037   0.00000  Uiso   1.00
Cu6    Cu    0.49990   0.00928   0.50049   0.00000  Uiso   1.00
loop_
_geom_bond_atom_site_label_1
_geom_bond_atom_site_label_2
_geom_bond_distance
_geom_bond_site_symmetry_2
_ccdc_geom_bond_type
C1     C2      1.402   .     A
C1     C6      1.377   .     A
C1     O1      1.381   .     S
C2     C3      1.417   1_655 A
C2     O2      1.395   .     S
C3     C2      1.417   1_455 A
C3     C4      1.402   .     A
C3     O3      1.395   .     S
C4     C5      1.377   .     A
C4     O4      1.381   .     S
C5     C6      1.398   1_455 A
C5     O5      1.381   .     S
C6     C5      1.398   1_655 A
C6     O6      1.381   .     S
O1     Cu4     1.814   .     S
O2     Zn1     1.805   1_655 S
O3     Zn1     1.805   .     S
O4     Cu1     1.814   .     S
O5     Cu1     1.813   .     S
O6     Cu4     1.814   .     S
C7     C8      1.402   .     A
C7     C12     1.377   .     A
C7     O7      1.381   .     S
C8     C9      1.417   1_655 A
C8     O8      1.395   .     S
C9     C8      1.417   1_455 A
C9     C10     1.402   .     A
C9     O9      1.395   .     S
C10    C11     1.377   .     A
C10    O10     1.381   .     S
C11    C12     1.398   1_455 A
C11    O11     1.381   .     S
C12    C11     1.398   1_655 A
C12    O12     1.381   .     S
O7     Cu2     1.814   .     S
O8     Zn2     1.805   1_655 S
O9     Zn2     1.805   .     S
O10    Cu3     1.814   .     S
O11    Cu3     1.814   .     S
O12    Cu2     1.814   .     S
C13    C14     1.402   .     A
C13    C18     1.377   .     A
C13    O13     1.381   .     S
C14    C15     1.417   .     A
C14    O14     1.395   .     S
C15    C16     1.402   .     A
C15    O15     1.395   .     S
C16    C17     1.377   .     A
C16    O16     1.381   .     S
C17    C18     1.398   .     A
C17    O17     1.381   .     S
C18    O18     1.381   .     S
O13    Cu3     1.814   .     S
O14    Zn3     1.805   .     S
O15    Zn3     1.805   .     S
O16    Cu2     1.814   .     S
O17    Cu2     1.813   .     S
O18    Cu3     1.814   .     S
C19    C20     1.402   .     A
C19    C24     1.377   .     A
C19    O19     1.381   .     S
C20    C21     1.417   .     A
C20    O20     1.395   .     S
C21    C22     1.402   .     A
C21    O21     1.395   .     S
C22    C23     1.377   .     A
C22    O22     1.381   .     S
C23    C24     1.398   .     A
C23    O23     1.381   .     S
C24    O24     1.381   .     S
O19    Cu1     1.814   .     S
O20    Zn4     1.804   .     S
O21    Zn4     1.805   .     S
O22    Cu4     1.814   .     S
O23    Cu4     1.814   .     S
O24    Cu1     1.813   .     S
C25    C26     1.406   .     A
C25    C30     1.396   .     A
C25    H1      1.082   .     S
C26    C27     1.426   1_554 A
C26    O25     1.395   .     S
C27    C26     1.426   1_556 A
C27    C28     1.406   .     A
C27    O26     1.395   .     S
C28    C29     1.396   .     A
C28    H2      1.082   1_455 S
C29    C30     1.360   1_556 A
C29    C32     1.377   .     A
C30    C29     1.360   1_554 A
C30    C31     1.377   .     A
C31    N1      1.359   .     A
C31    N8      1.338   .     A
N1     C32     1.359   1_554 A
N1     Ni1     1.895   .     S
C32    N1      1.359   1_556 A
C32    N2      1.338   1_455 A
N2     C32     1.338   1_655 A
N2     C33     1.338   .     A
C33    N3      1.360   1_655 A
C33    C36     1.376   .     A
N3     C33     1.360   1_455 A
N3     C34     1.360   .     A
N3     Ni1     1.895   1_556 S
C34    C35     1.376   .     A
C34    N5      1.338   .     A
C35    C36     1.363   1_455 A
C35    C44     1.399   .     A
C36    C35     1.363   1_655 A
C36    C41     1.398   .     A
N4     C37     1.359   1_554 A
N4     C40     1.360   .     A
N4     Ni1     1.896   .     S
C37    N4      1.359   1_556 A
C37    N5      1.338   .     A
C37    C38     1.377   .     A
C38    C39     1.360   1_556 A
C38    C48     1.396   .     A
C39    C38     1.360   1_554 A
C39    C40     1.377   .     A
C39    C45     1.396   1_455 A
C40    N7      1.338   1_455 A
C41    C42     1.406   .     A
C41    H3      1.082   .     S
C42    C43     1.388   .     A
C42    O27     1.381   .     S
C43    C44     1.406   1_655 A
C43    O28     1.381   .     S
C44    C43     1.406   1_455 A
C44    H4      1.083   .     S
C45    C39     1.396   1_655 A
C45    C46     1.406   1_655 A
C45    H5      1.082   .     S
C46    C45     1.406   1_455 A
C46    C47     1.426   1_554 A
C46    O29     1.395   .     S
C47    C46     1.426   1_556 A
C47    C48     1.406   .     A
C47    O30     1.395   .     S
C48    H6      1.082   .     S
N6     C49     1.360   1_455 A
N6     C52     1.360   .     A
N6     Ni1     1.895   .     S
C49    N6      1.360   1_655 A
C49    N7      1.338   .     A
C49    C50     1.376   .     A
N7     C40     1.338   1_655 A
C50    C51     1.363   1_655 A
C50    C56     1.399   .     A
C51    C50     1.363   1_455 A
C51    C52     1.376   .     A
C51    C53     1.399   .     A
C52    N8      1.338   .     A
C53    C54     1.406   1_455 A
C53    H7      1.082   .     S
C54    C53     1.406   1_655 A
C54    C55     1.388   .     A
C54    O31     1.381   .     S
C55    C56     1.406   .     A
C55    O32     1.381   .     S
C56    H8      1.082   .     S
O25    Zn1     1.803   .     S
O26    Zn1     1.803   1_556 S
H2     C28     1.082   1_655 S
O27    Cu5     1.814   .     S
O28    Cu5     1.814   .     S
O29    Zn2     1.803   .     S
O30    Zn2     1.803   1_556 S
O31    Cu5     1.814   .     S
O32    Cu5     1.814   .     S
Ni1    N3      1.895   1_554 S
C57    C58     1.406   .     A
C57    C62     1.399   .     A
C57    H9      1.082   .     S
C58    C59     1.388   1_565 A
C58    O33     1.381   .     S
C59    C58     1.388   1_545 A
C59    C60     1.406   .     A
C59    O34     1.381   .     S
C60    C61     1.399   .     A
C60    H10     1.082   .     S
C61    C62     1.363   1_545 A
C61    C64     1.376   .     A
C62    C61     1.363   1_565 A
C62    C63     1.376   .     A
C63    N9      1.360   1_565 A
C63    N16     1.338   .     A
N9     C63     1.360   1_545 A
N9     C64     1.360   .     A
N9     Ni2     1.896   .     S
C64    N10     1.338   .     A
N10    C65     1.338   .     A
C65    N11     1.360   .     A
C65    C68     1.377   .     A
N11    C66     1.360   1_554 A
N11    Ni2     1.896   .     S
C66    N11     1.360   1_556 A
C66    C67     1.377   .     A
C66    N13     1.338   .     A
C67    C68     1.360   1_556 A
C67    C76     1.396   .     A
C68    C67     1.360   1_554 A
C68    C73     1.396   .     A
N12    C69     1.360   .     A
N12    C72     1.360   1_545 A
N12    Ni2     1.896   1_556 S
C69    N13     1.338   .     A
C69    C70     1.376   .     A
C70    C71     1.363   1_545 A
C70    C80     1.399   .     A
C71    C70     1.363   1_565 A
C71    C72     1.376   .     A
C71    C77     1.399   .     A
C72    N12     1.360   1_565 A
C72    N15     1.338   .     A
C73    C74     1.406   .     A
C73    H11     1.083   .     S
C74    C75     1.426   1_554 A
C74    O35     1.395   .     S
C75    C74     1.426   1_556 A
C75    C76     1.406   .     A
C75    O36     1.395   .     S
C76    H12     1.083   .     S
C77    C78     1.406   .     A
C77    H13     1.082   .     S
C78    C79     1.388   1_565 A
C78    O37     1.381   .     S
C79    C78     1.388   1_545 A
C79    C80     1.406   .     A
C79    O38     1.381   .     S
C80    H14     1.083   .     S
N14    C81     1.360   1_554 A
N14    C84     1.359   .     A
N14    Ni2     1.896   1_565 S
C81    N14     1.360   1_556 A
C81    N15     1.338   .     A
C81    C82     1.377   .     A
C82    C83     1.360   1_556 A
C82    C88     1.396   .     A
C83    C82     1.360   1_554 A
C83    C84     1.376   .     A
C83    C85     1.396   .     A
C84    N16     1.338   .     A
C85    C86     1.406   .     A
C85    H15     1.083   .     S
C86    C87     1.426   1_554 A
C86    O39     1.395   .     S
C87    C86     1.426   1_556 A
C87    C88     1.406   .     A
C87    O40     1.395   .     S
C88    H16     1.082   .     S
O33    Cu6     1.814   1_565 S
O34    Cu6     1.814   .     S
O35    Zn4     1.803   .     S
O36    Zn4     1.803   1_556 S
O37    Cu6     1.814   1_565 S
O38    Cu6     1.814   .     S
O39    Zn3     1.803   .     S
O40    Zn3     1.803   1_556 S
Ni2    N14     1.896   1_545 S
Ni2    N12     1.896   1_554 S
Zn1    O2      1.805   1_455 S
Zn1    O26     1.803   1_554 S
Zn2    O8      1.805   1_455 S
Zn2    O30     1.803   1_554 S
Zn3    O40     1.803   1_554 S
Zn4    O36     1.803   1_554 S
Cu6    O37     1.814   1_545 S
Cu6    O33     1.814   1_545 S
