data_tfn-B_O-PcM_O-Zntet
_audit_creation_date              2021-11-06
_audit_creation_method            'Materials Studio'
_symmetry_space_group_name_H-M    'P1'
_symmetry_Int_Tables_number       1
_symmetry_cell_setting            triclinic
loop_
_symmetry_equiv_pos_as_xyz
  x,y,z
_cell_length_a                    29.4348
_cell_length_b                    29.4357
_cell_length_c                    35.2429
_cell_angle_alpha                 90.0013
_cell_angle_beta                  89.9991
_cell_angle_gamma                 90.0001
loop_
_atom_site_label
_atom_site_type_symbol
_atom_site_fract_x
_atom_site_fract_y
_atom_site_fract_z
_atom_site_U_iso_or_equiv
_atom_site_adp_type
_atom_site_occupancy
C1     C     0.04770   0.50836   0.86625   0.00000  Uiso   1.00
C2     C     0.02396   0.50425   0.83178   0.00000  Uiso   1.00
C3     C     0.97621   0.49599   0.83178   0.00000  Uiso   1.00
C4     C     0.95246   0.49187   0.86624   0.00000  Uiso   1.00
C5     C     0.97731   0.49616   0.89979   0.00000  Uiso   1.00
C6     C     0.02285   0.50405   0.89979   0.00000  Uiso   1.00
C7     C     0.03584   0.50628   0.93727   0.00000  Uiso   1.00
N1     N     0.00008   0.50009   0.96113   0.00000  Uiso   1.00
C8     C     0.96432   0.49391   0.93726   0.00000  Uiso   1.00
N2     N     0.92144   0.48650   0.94825   0.00000  Uiso   1.00
C9     C     0.90845   0.48440   0.98460   0.00000  Uiso   1.00
N3     N     0.93659   0.48937   0.01491   0.00000  Uiso   1.00
C10    C     0.90846   0.48438   0.04522   0.00000  Uiso   1.00
C11    C     0.86428   0.47651   0.03421   0.00000  Uiso   1.00
C12    C     0.86428   0.47652   0.99561   0.00000  Uiso   1.00
N4     N     0.00008   0.50008   0.06869   0.00000  Uiso   1.00
C13    C     0.96432   0.49389   0.09255   0.00000  Uiso   1.00
N5     N     0.92144   0.48648   0.08156   0.00000  Uiso   1.00
C14    C     0.97732   0.49613   0.13003   0.00000  Uiso   1.00
C15    C     0.02286   0.50403   0.13002   0.00000  Uiso   1.00
C16    C     0.03584   0.50627   0.09255   0.00000  Uiso   1.00
C17    C     0.82485   0.46887   0.97455   0.00000  Uiso   1.00
C18    C     0.78440   0.46076   0.99467   0.00000  Uiso   1.00
C19    C     0.78440   0.46075   0.03515   0.00000  Uiso   1.00
C20    C     0.82486   0.46885   0.05527   0.00000  Uiso   1.00
C21    C     0.04771   0.50833   0.16356   0.00000  Uiso   1.00
C22    C     0.02397   0.50422   0.19803   0.00000  Uiso   1.00
C23    C     0.97622   0.49594   0.19803   0.00000  Uiso   1.00
C24    C     0.95247   0.49183   0.16357   0.00000  Uiso   1.00
N6     N     0.06357   0.51081   0.01491   0.00000  Uiso   1.00
C25    C     0.09171   0.51578   0.04522   0.00000  Uiso   1.00
N7     N     0.07872   0.51368   0.08156   0.00000  Uiso   1.00
C26    C     0.13588   0.52365   0.03421   0.00000  Uiso   1.00
C27    C     0.13588   0.52364   0.99560   0.00000  Uiso   1.00
C28    C     0.09171   0.51578   0.98459   0.00000  Uiso   1.00
C29    C     0.17531   0.53129   0.97454   0.00000  Uiso   1.00
C30    C     0.21577   0.53939   0.99466   0.00000  Uiso   1.00
C31    C     0.21577   0.53939   0.03514   0.00000  Uiso   1.00
C32    C     0.17531   0.53130   0.05527   0.00000  Uiso   1.00
N8     N     0.07872   0.51368   0.94825   0.00000  Uiso   1.00
H1     H     0.08394   0.51463   0.86670   0.00000  Uiso   1.00
O1     O     0.04682   0.50822   0.79728   0.00000  Uiso   1.00
O2     O     0.95335   0.49204   0.79727   0.00000  Uiso   1.00
H2     H     0.91623   0.48559   0.86669   0.00000  Uiso   1.00
H3     H     0.82543   0.46872   0.94383   0.00000  Uiso   1.00
O3     O     0.74404   0.45190   0.97530   0.00000  Uiso   1.00
O4     O     0.74404   0.45189   0.05453   0.00000  Uiso   1.00
H4     H     0.82544   0.46869   0.08599   0.00000  Uiso   1.00
H5     H     0.08394   0.51461   0.16311   0.00000  Uiso   1.00
O5     O     0.04684   0.50818   0.23253   0.00000  Uiso   1.00
O6     O     0.95337   0.49199   0.23255   0.00000  Uiso   1.00
H6     H     0.91624   0.48555   0.16313   0.00000  Uiso   1.00
H7     H     0.17473   0.53144   0.94383   0.00000  Uiso   1.00
O7     O     0.25613   0.54823   0.97529   0.00000  Uiso   1.00
O8     O     0.25612   0.54824   0.05452   0.00000  Uiso   1.00
H8     H     0.17472   0.53145   0.08598   0.00000  Uiso   1.00
Ni1    Ni    0.00008   0.50009   0.01491   0.00000  Uiso   1.00
C33    C     0.96895   0.67534   0.47454   0.00000  Uiso   1.00
C34    C     0.96084   0.71579   0.49466   0.00000  Uiso   1.00
C35    C     0.96084   0.71580   0.53514   0.00000  Uiso   1.00
C36    C     0.96896   0.67535   0.55526   0.00000  Uiso   1.00
C37    C     0.97661   0.63592   0.53421   0.00000  Uiso   1.00
C38    C     0.97661   0.63592   0.49560   0.00000  Uiso   1.00
C39    C     0.98448   0.59174   0.48459   0.00000  Uiso   1.00
N9     N     0.98946   0.56361   0.51491   0.00000  Uiso   1.00
C40    C     0.98449   0.59175   0.54522   0.00000  Uiso   1.00
N10    N     0.98659   0.57877   0.58156   0.00000  Uiso   1.00
C41    C     0.99399   0.53589   0.59255   0.00000  Uiso   1.00
N11    N     0.00018   0.50013   0.56869   0.00000  Uiso   1.00
C42    C     0.00635   0.46437   0.59255   0.00000  Uiso   1.00
C43    C     0.00411   0.47736   0.63003   0.00000  Uiso   1.00
C44    C     0.99622   0.52290   0.63003   0.00000  Uiso   1.00
N12    N     0.01087   0.43663   0.51491   0.00000  Uiso   1.00
C45    C     0.01583   0.40849   0.54522   0.00000  Uiso   1.00
N13    N     0.01374   0.42148   0.58156   0.00000  Uiso   1.00
C46    C     0.02368   0.36432   0.53421   0.00000  Uiso   1.00
C47    C     0.02369   0.36432   0.49561   0.00000  Uiso   1.00
C48    C     0.01584   0.40849   0.48460   0.00000  Uiso   1.00
C49    C     0.99190   0.54775   0.66357   0.00000  Uiso   1.00
C50    C     0.99599   0.52400   0.69803   0.00000  Uiso   1.00
C51    C     0.00426   0.47625   0.69803   0.00000  Uiso   1.00
C52    C     0.00839   0.45251   0.66357   0.00000  Uiso   1.00
C53    C     0.03133   0.32489   0.47455   0.00000  Uiso   1.00
C54    C     0.03941   0.28443   0.49467   0.00000  Uiso   1.00
C55    C     0.03940   0.28443   0.53515   0.00000  Uiso   1.00
C56    C     0.03131   0.32489   0.55528   0.00000  Uiso   1.00
N14    N     0.00018   0.50012   0.46113   0.00000  Uiso   1.00
C57    C     0.00636   0.46436   0.43727   0.00000  Uiso   1.00
N15    N     0.01376   0.42148   0.44825   0.00000  Uiso   1.00
C58    C     0.00412   0.47734   0.39979   0.00000  Uiso   1.00
C59    C     0.99623   0.52288   0.39979   0.00000  Uiso   1.00
C60    C     0.99399   0.53588   0.43726   0.00000  Uiso   1.00
C61    C     0.99191   0.54772   0.36624   0.00000  Uiso   1.00
C62    C     0.99600   0.52398   0.33178   0.00000  Uiso   1.00
C63    C     0.00428   0.47623   0.33178   0.00000  Uiso   1.00
C64    C     0.00841   0.45249   0.36625   0.00000  Uiso   1.00
N16    N     0.98658   0.57875   0.44825   0.00000  Uiso   1.00
H9     H     0.96878   0.67475   0.44383   0.00000  Uiso   1.00
O9     O     0.95197   0.75615   0.47528   0.00000  Uiso   1.00
O10    O     0.95198   0.75615   0.55452   0.00000  Uiso   1.00
H10    H     0.96881   0.67476   0.58598   0.00000  Uiso   1.00
H11    H     0.98563   0.58398   0.66311   0.00000  Uiso   1.00
O11    O     0.99202   0.54686   0.73254   0.00000  Uiso   1.00
O12    O     0.00820   0.45339   0.73254   0.00000  Uiso   1.00
H12    H     0.01466   0.41628   0.66312   0.00000  Uiso   1.00
H13    H     0.03149   0.32547   0.44384   0.00000  Uiso   1.00
O13    O     0.04825   0.24407   0.47530   0.00000  Uiso   1.00
O14    O     0.04824   0.24407   0.55453   0.00000  Uiso   1.00
H14    H     0.03146   0.32547   0.58599   0.00000  Uiso   1.00
H15    H     0.98563   0.58396   0.36669   0.00000  Uiso   1.00
O15    O     0.99203   0.54683   0.29727   0.00000  Uiso   1.00
O16    O     0.00822   0.45336   0.29728   0.00000  Uiso   1.00
H16    H     0.01468   0.41626   0.36670   0.00000  Uiso   1.00
Ni2    Ni    0.00017   0.50012   0.51491   0.00000  Uiso   1.00
C65    C     0.67531   0.96885   0.47455   0.00000  Uiso   1.00
C66    C     0.71576   0.96075   0.49467   0.00000  Uiso   1.00
C67    C     0.71576   0.96075   0.53515   0.00000  Uiso   1.00
C68    C     0.67530   0.96885   0.55527   0.00000  Uiso   1.00
C69    C     0.63588   0.97649   0.53421   0.00000  Uiso   1.00
C70    C     0.63588   0.97649   0.49561   0.00000  Uiso   1.00
C71    C     0.59170   0.98435   0.48460   0.00000  Uiso   1.00
N17    N     0.56357   0.98932   0.51491   0.00000  Uiso   1.00
C72    C     0.59170   0.98435   0.54522   0.00000  Uiso   1.00
N18    N     0.57871   0.98645   0.58156   0.00000  Uiso   1.00
C73    C     0.53583   0.99386   0.59255   0.00000  Uiso   1.00
N19    N     0.50007   0.00004   0.56869   0.00000  Uiso   1.00
C74    C     0.46431   0.00623   0.59255   0.00000  Uiso   1.00
C75    C     0.47729   0.00399   0.63002   0.00000  Uiso   1.00
C76    C     0.52284   0.99610   0.63003   0.00000  Uiso   1.00
N20    N     0.43658   0.01077   0.51491   0.00000  Uiso   1.00
C77    C     0.40845   0.01575   0.54522   0.00000  Uiso   1.00
N21    N     0.42143   0.01365   0.58156   0.00000  Uiso   1.00
C78    C     0.36428   0.02363   0.53421   0.00000  Uiso   1.00
C79    C     0.36428   0.02363   0.49560   0.00000  Uiso   1.00
C80    C     0.40845   0.01575   0.48459   0.00000  Uiso   1.00
C81    C     0.54768   0.99180   0.66357   0.00000  Uiso   1.00
C82    C     0.52393   0.99592   0.69803   0.00000  Uiso   1.00
C83    C     0.47618   0.00420   0.69803   0.00000  Uiso   1.00
C84    C     0.45244   0.00830   0.66356   0.00000  Uiso   1.00
C85    C     0.32486   0.03130   0.47454   0.00000  Uiso   1.00
C86    C     0.28440   0.03941   0.49466   0.00000  Uiso   1.00
C87    C     0.28440   0.03940   0.53514   0.00000  Uiso   1.00
C88    C     0.32485   0.03129   0.55527   0.00000  Uiso   1.00
N22    N     0.50008   1.00004   0.46113   0.00000  Uiso   1.00
C89    C     0.46432   0.00623   0.43726   0.00000  Uiso   1.00
N23    N     0.42144   0.01365   0.44825   0.00000  Uiso   1.00
C90    C     0.47731   0.00399   0.39979   0.00000  Uiso   1.00
C91    C     0.52285   0.99609   0.39979   0.00000  Uiso   1.00
C92    C     0.53584   0.99385   0.43726   0.00000  Uiso   1.00
C93    C     0.54769   0.99179   0.36624   0.00000  Uiso   1.00
C94    C     0.52395   0.99591   0.33178   0.00000  Uiso   1.00
C95    C     0.47620   0.00419   0.33178   0.00000  Uiso   1.00
C96    C     0.45246   0.00830   0.36625   0.00000  Uiso   1.00
N24    N     0.57872   0.98644   0.44825   0.00000  Uiso   1.00
H17    H     0.67472   0.96869   0.44383   0.00000  Uiso   1.00
O17    O     0.75612   0.95191   0.47529   0.00000  Uiso   1.00
O18    O     0.75612   0.95191   0.55452   0.00000  Uiso   1.00
H18    H     0.67472   0.96869   0.58599   0.00000  Uiso   1.00
H19    H     0.58391   0.98553   0.66313   0.00000  Uiso   1.00
O19    O     0.54678   0.99198   0.73255   0.00000  Uiso   1.00
O20    O     0.45331   0.00816   0.73253   0.00000  Uiso   1.00
H20    H     0.41621   0.01458   0.66311   0.00000  Uiso   1.00
H21    H     0.32544   0.03145   0.44383   0.00000  Uiso   1.00
O21    O     0.24405   0.04827   0.47528   0.00000  Uiso   1.00
O22    O     0.24404   0.04826   0.55452   0.00000  Uiso   1.00
H22    H     0.32543   0.03145   0.58598   0.00000  Uiso   1.00
H23    H     0.58393   0.98551   0.36669   0.00000  Uiso   1.00
O23    O     0.54681   0.99196   0.29727   0.00000  Uiso   1.00
O24    O     0.45334   0.00816   0.29728   0.00000  Uiso   1.00
H24    H     0.41623   0.01459   0.36670   0.00000  Uiso   1.00
Ni3    Ni    0.50007   1.00004   0.51491   0.00000  Uiso   1.00
C97    C     0.50824   0.04771   0.86624   0.00000  Uiso   1.00
C98    C     0.50415   0.02396   0.83178   0.00000  Uiso   1.00
C99    C     0.49588   0.97621   0.83178   0.00000  Uiso   1.00
C100   C     0.49175   0.95248   0.86625   0.00000  Uiso   1.00
C101   C     0.49603   0.97733   0.89979   0.00000  Uiso   1.00
C102   C     0.50392   0.02287   0.89979   0.00000  Uiso   1.00
C103   C     0.50615   0.03586   0.93727   0.00000  Uiso   1.00
N25    N     0.49996   0.00010   0.96113   0.00000  Uiso   1.00
C104   C     0.49379   0.96434   0.93726   0.00000  Uiso   1.00
N26    N     0.48639   0.92146   0.94825   0.00000  Uiso   1.00
C105   C     0.48429   0.90847   0.98459   0.00000  Uiso   1.00
N27    N     0.48925   0.93661   0.01491   0.00000  Uiso   1.00
C106   C     0.48429   0.90847   0.04522   0.00000  Uiso   1.00
C107   C     0.47643   0.86430   0.03421   0.00000  Uiso   1.00
C108   C     0.47643   0.86430   0.99560   0.00000  Uiso   1.00
N28    N     0.49997   0.00010   0.06869   0.00000  Uiso   1.00
C109   C     0.49379   0.96434   0.09255   0.00000  Uiso   1.00
N29    N     0.48639   0.92146   0.08156   0.00000  Uiso   1.00
C110   C     0.49605   0.97732   0.13002   0.00000  Uiso   1.00
C111   C     0.50394   0.02286   0.13003   0.00000  Uiso   1.00
C112   C     0.50617   0.03586   0.09255   0.00000  Uiso   1.00
C113   C     0.46881   0.82487   0.97454   0.00000  Uiso   1.00
C114   C     0.46073   0.78440   0.99467   0.00000  Uiso   1.00
C115   C     0.46073   0.78441   0.03514   0.00000  Uiso   1.00
C116   C     0.46881   0.82487   0.05527   0.00000  Uiso   1.00
C117   C     0.50827   0.04770   0.16357   0.00000  Uiso   1.00
C118   C     0.50418   0.02395   0.19803   0.00000  Uiso   1.00
C119   C     0.49590   0.97620   0.19803   0.00000  Uiso   1.00
C120   C     0.49176   0.95247   0.16357   0.00000  Uiso   1.00
N30    N     0.51067   0.06359   0.01491   0.00000  Uiso   1.00
C121   C     0.51565   0.09172   0.04522   0.00000  Uiso   1.00
N31    N     0.51357   0.07873   0.08156   0.00000  Uiso   1.00
C122   C     0.52353   0.13590   0.03421   0.00000  Uiso   1.00
C123   C     0.52352   0.13590   0.99561   0.00000  Uiso   1.00
C124   C     0.51565   0.09172   0.98460   0.00000  Uiso   1.00
C125   C     0.53119   0.17532   0.97455   0.00000  Uiso   1.00
C126   C     0.53931   0.21577   0.99467   0.00000  Uiso   1.00
C127   C     0.53931   0.21577   0.03515   0.00000  Uiso   1.00
C128   C     0.53120   0.17532   0.05527   0.00000  Uiso   1.00
N32    N     0.51356   0.07874   0.94825   0.00000  Uiso   1.00
H25    H     0.51452   0.08394   0.86670   0.00000  Uiso   1.00
O25    O     0.50812   0.04682   0.79727   0.00000  Uiso   1.00
O26    O     0.49194   0.95335   0.79728   0.00000  Uiso   1.00
H26    H     0.48548   0.91624   0.86670   0.00000  Uiso   1.00
H27    H     0.46865   0.82545   0.94383   0.00000  Uiso   1.00
O27    O     0.45191   0.74404   0.97529   0.00000  Uiso   1.00
O28    O     0.45190   0.74405   0.05452   0.00000  Uiso   1.00
H28    H     0.46865   0.82545   0.08598   0.00000  Uiso   1.00
H29    H     0.51455   0.08394   0.16312   0.00000  Uiso   1.00
O29    O     0.50816   0.04680   0.23254   0.00000  Uiso   1.00
O30    O     0.49196   0.95334   0.23254   0.00000  Uiso   1.00
H30    H     0.48549   0.91624   0.16311   0.00000  Uiso   1.00
H31    H     0.53134   0.17474   0.94384   0.00000  Uiso   1.00
O31    O     0.54818   0.25613   0.97530   0.00000  Uiso   1.00
O32    O     0.54819   0.25612   0.05453   0.00000  Uiso   1.00
H32    H     0.53136   0.17473   0.08599   0.00000  Uiso   1.00
Ni4    Ni    0.49996   0.00010   0.01491   0.00000  Uiso   1.00
C129   C     0.37722   0.55543   0.01491   0.00000  Uiso   1.00
C130   C     0.42330   0.54379   0.01491   0.00000  Uiso   1.00
C131   C     0.45637   0.57687   0.01491   0.00000  Uiso   1.00
C132   C     0.44473   0.62294   0.01491   0.00000  Uiso   1.00
C133   C     0.39833   0.63549   0.01491   0.00000  Uiso   1.00
C134   C     0.36467   0.60183   0.01491   0.00000  Uiso   1.00
O33    O     0.34351   0.52208   0.01491   0.00000  Uiso   1.00
O34    O     0.43850   0.49939   0.01492   0.00000  Uiso   1.00
O35    O     0.50078   0.56166   0.01491   0.00000  Uiso   1.00
O36    O     0.47808   0.65666   0.01491   0.00000  Uiso   1.00
O37    O     0.38660   0.68139   0.01490   0.00000  Uiso   1.00
O38    O     0.31877   0.61355   0.01490   0.00000  Uiso   1.00
C135   C     0.87723   0.94474   0.51490   0.00000  Uiso   1.00
C136   C     0.92331   0.95639   0.51490   0.00000  Uiso   1.00
C137   C     0.95638   0.92332   0.51489   0.00000  Uiso   1.00
C138   C     0.94475   0.87725   0.51490   0.00000  Uiso   1.00
C139   C     0.89835   0.86469   0.51490   0.00000  Uiso   1.00
C140   C     0.86469   0.89834   0.51490   0.00000  Uiso   1.00
O39    O     0.84351   0.97808   0.51491   0.00000  Uiso   1.00
O40    O     0.93850   1.00080   0.51489   0.00000  Uiso   1.00
O41    O     1.00079   0.93853   0.51489   0.00000  Uiso   1.00
O42    O     0.97811   0.84354   0.51489   0.00000  Uiso   1.00
O43    O     0.88664   0.81878   0.51490   0.00000  Uiso   1.00
O44    O     0.81878   0.88660   0.51491   0.00000  Uiso   1.00
C141   C     0.57686   0.45636   0.01492   0.00000  Uiso   1.00
C142   C     0.62294   0.44471   0.01492   0.00000  Uiso   1.00
C143   C     0.63548   0.39831   0.01491   0.00000  Uiso   1.00
C144   C     0.60182   0.36466   0.01492   0.00000  Uiso   1.00
C145   C     0.55542   0.37722   0.01492   0.00000  Uiso   1.00
C146   C     0.54379   0.42330   0.01492   0.00000  Uiso   1.00
O45    O     0.56167   0.50077   0.01492   0.00000  Uiso   1.00
O46    O     0.65666   0.47806   0.01492   0.00000  Uiso   1.00
O47    O     0.68139   0.38658   0.01491   0.00000  Uiso   1.00
O48    O     0.61353   0.31875   0.01491   0.00000  Uiso   1.00
O49    O     0.52206   0.34351   0.01492   0.00000  Uiso   1.00
O50    O     0.49938   0.43850   0.01492   0.00000  Uiso   1.00
C147   C     0.07687   0.04382   0.51490   0.00000  Uiso   1.00
C148   C     0.12294   0.05546   0.51490   0.00000  Uiso   1.00
C149   C     0.13549   0.10186   0.51490   0.00000  Uiso   1.00
C150   C     0.10184   0.13552   0.51491   0.00000  Uiso   1.00
C151   C     0.05543   0.12297   0.51491   0.00000  Uiso   1.00
C152   C     0.04379   0.07689   0.51490   0.00000  Uiso   1.00
O51    O     0.06167  -0.00058   0.51489   0.00000  Uiso   1.00
O52    O     0.15666   0.02211   0.51490   0.00000  Uiso   1.00
O53    O     0.18140   0.11359   0.51490   0.00000  Uiso   1.00
O54    O     0.11356   0.18142   0.51492   0.00000  Uiso   1.00
O55    O     0.02208   0.15669   0.51491   0.00000  Uiso   1.00
O56    O    -0.00061   0.06169   0.51490   0.00000  Uiso   1.00
Cu1    Cu    0.50008   0.50008   0.01491   0.00000  Uiso   1.00
Cu2    Cu    0.00008   0.00011   0.51488   0.00000  Uiso   1.00
Zn1    Zn    0.29366   0.55780   0.01490   0.00000  Uiso   1.00
Zn2    Zn    0.94240   0.79369   0.51490   0.00000  Uiso   1.00
Zn3    Zn    0.70650   0.44234   0.01491   0.00000  Uiso   1.00
Zn4    Zn    0.05780   0.20653   0.51491   0.00000  Uiso   1.00
Zn5    Zn    0.79367   0.94236   0.51491   0.00000  Uiso   1.00
Zn6    Zn    0.55776   0.29366   0.01492   0.00000  Uiso   1.00
Zn7    Zn    0.20650   0.05783   0.51490   0.00000  Uiso   1.00
Zn8    Zn    0.44235   0.70650   0.01491   0.00000  Uiso   1.00
Zn9    Zn    0.00011   0.50009   0.26491   0.00000  Uiso   1.00
Zn10   Zn    0.00010   0.50013   0.76491   0.00000  Uiso   1.00
Zn11   Zn    0.50007   0.00007   0.26491   0.00000  Uiso   1.00
Zn12   Zn    0.50004   0.00008   0.76491   0.00000  Uiso   1.00
loop_
_geom_bond_atom_site_label_1
_geom_bond_atom_site_label_2
_geom_bond_distance
_geom_bond_site_symmetry_2
_ccdc_geom_bond_type
C1     C2      1.406   .     A
C1     C6      1.396   .     A
C1     H1      1.083   .     S
C2     C3      1.427   1_455 A
C2     O1      1.395   .     S
C3     C2      1.427   1_655 A
C3     C4      1.406   .     A
C3     O2      1.395   .     S
C4     C5      1.396   .     A
C4     H2      1.083   .     S
C5     C6      1.361   1_655 A
C5     C8      1.377   .     A
C6     C5      1.361   1_455 A
C6     C7      1.377   .     A
C7     N1      1.360   .     A
C7     N8      1.338   .     A
N1     C8      1.360   1_455 A
N1     Ni1     1.895   1_556 S
C8     N1      1.360   1_655 A
C8     N2      1.338   .     A
N2     C9      1.338   .     A
C9     N3      1.360   1_556 A
C9     C12     1.377   .     A
N3     C9      1.360   1_554 A
N3     C10     1.360   .     A
N3     Ni1     1.895   1_655 S
C10    C11     1.377   .     A
C10    N5      1.338   .     A
C11    C12     1.361   1_554 A
C11    C20     1.396   .     A
C12    C11     1.361   1_556 A
C12    C17     1.396   .     A
N4     C13     1.360   1_455 A
N4     C16     1.360   .     A
N4     Ni1     1.895   .     S
C13    N4      1.360   1_655 A
C13    N5      1.338   .     A
C13    C14     1.377   .     A
C14    C15     1.361   1_655 A
C14    C24     1.396   .     A
C15    C14     1.361   1_455 A
C15    C16     1.377   .     A
C15    C21     1.396   .     A
C16    N7      1.338   .     A
C17    C18     1.406   .     A
C17    H3      1.083   .     S
C18    C19     1.427   1_556 A
C18    O3      1.395   .     S
C19    C18     1.427   1_554 A
C19    C20     1.406   .     A
C19    O4      1.395   .     S
C20    H4      1.083   .     S
C21    C22     1.406   .     A
C21    H5      1.083   .     S
C22    C23     1.427   1_455 A
C22    O5      1.395   .     S
C23    C22     1.427   1_655 A
C23    C24     1.406   .     A
C23    O6      1.395   .     S
C24    H6      1.083   .     S
N6     C25     1.360   .     A
N6     C28     1.360   1_554 A
N6     Ni1     1.895   .     S
C25    N7      1.338   .     A
C25    C26     1.377   .     A
C26    C27     1.361   1_554 A
C26    C32     1.396   .     A
C27    C26     1.361   1_556 A
C27    C28     1.377   .     A
C27    C29     1.396   .     A
C28    N6      1.360   1_556 A
C28    N8      1.338   .     A
C29    C30     1.406   .     A
C29    H7      1.083   .     S
C30    C31     1.427   1_556 A
C30    O7      1.395   .     S
C31    C30     1.427   1_554 A
C31    C32     1.406   .     A
C31    O8      1.395   .     S
C32    H8      1.083   .     S
O1     Zn10    1.803   .     S
O2     Zn10    1.803   1_655 S
O3     Zn3     1.803   1_556 S
O4     Zn3     1.803   .     S
O5     Zn9     1.803   .     S
O6     Zn9     1.803   1_655 S
O7     Zn1     1.803   1_556 S
O8     Zn1     1.803   .     S
Ni1    N3      1.895   1_455 S
Ni1    N1      1.895   1_554 S
C33    C34     1.406   .     A
C33    C38     1.396   .     A
C33    H9      1.083   .     S
C34    C35     1.427   .     A
C34    O9      1.395   .     S
C35    C36     1.406   .     A
C35    O10     1.395   .     S
C36    C37     1.396   .     A
C36    H10     1.083   .     S
C37    C38     1.361   .     A
C37    C40     1.377   .     A
C38    C39     1.377   .     A
C39    N9      1.360   .     A
C39    N16     1.338   .     A
N9     C40     1.360   .     A
N9     Ni2     1.895   1_655 S
C40    N10     1.338   .     A
N10    C41     1.338   .     A
C41    N11     1.360   1_655 A
C41    C44     1.377   .     A
N11    C41     1.360   1_455 A
N11    C42     1.360   .     A
N11    Ni2     1.895   .     S
C42    C43     1.377   .     A
C42    N13     1.338   .     A
C43    C44     1.361   1_455 A
C43    C52     1.396   .     A
C44    C43     1.361   1_655 A
C44    C49     1.396   .     A
N12    C45     1.360   .     A
N12    C48     1.360   .     A
N12    Ni2     1.895   .     S
C45    N13     1.338   .     A
C45    C46     1.377   .     A
C46    C47     1.361   .     A
C46    C56     1.396   .     A
C47    C48     1.377   .     A
C47    C53     1.396   .     A
C48    N15     1.338   .     A
C49    C50     1.406   .     A
C49    H11     1.083   .     S
C50    C51     1.427   1_655 A
C50    O11     1.395   .     S
C51    C50     1.427   1_455 A
C51    C52     1.406   .     A
C51    O12     1.395   .     S
C52    H12     1.083   .     S
C53    C54     1.406   .     A
C53    H13     1.083   .     S
C54    C55     1.427   .     A
C54    O13     1.395   .     S
C55    C56     1.406   .     A
C55    O14     1.395   .     S
C56    H14     1.083   .     S
N14    C57     1.360   .     A
N14    C60     1.360   1_455 A
N14    Ni2     1.895   .     S
C57    N15     1.338   .     A
C57    C58     1.377   .     A
C58    C59     1.361   1_455 A
C58    C64     1.396   .     A
C59    C58     1.361   1_655 A
C59    C60     1.377   .     A
C59    C61     1.396   .     A
C60    N14     1.360   1_655 A
C60    N16     1.338   .     A
C61    C62     1.406   .     A
C61    H15     1.083   .     S
C62    C63     1.427   1_655 A
C62    O15     1.395   .     S
C63    C62     1.427   1_455 A
C63    C64     1.406   .     A
C63    O16     1.395   .     S
C64    H16     1.083   .     S
O9     Zn2     1.803   .     S
O10    Zn2     1.803   .     S
O11    Zn10    1.803   1_655 S
O12    Zn10    1.803   .     S
O13    Zn4     1.803   .     S
O14    Zn4     1.803   .     S
O15    Zn9     1.803   1_655 S
O16    Zn9     1.803   .     S
Ni2    N9      1.895   1_455 S
C65    C66     1.406   .     A
C65    C70     1.396   .     A
C65    H17     1.083   .     S
C66    C67     1.427   .     A
C66    O17     1.395   .     S
C67    C68     1.406   .     A
C67    O18     1.395   .     S
C68    C69     1.396   .     A
C68    H18     1.083   .     S
C69    C70     1.361   .     A
C69    C72     1.377   .     A
C70    C71     1.377   .     A
C71    N17     1.360   .     A
C71    N24     1.338   .     A
N17    C72     1.360   .     A
N17    Ni3     1.895   .     S
C72    N18     1.338   .     A
N18    C73     1.338   .     A
C73    N19     1.360   1_565 A
C73    C76     1.377   .     A
N19    C73     1.360   1_545 A
N19    C74     1.360   .     A
N19    Ni3     1.895   1_545 S
C74    C75     1.377   .     A
C74    N21     1.338   .     A
C75    C76     1.361   1_545 A
C75    C84     1.396   .     A
C76    C75     1.361   1_565 A
C76    C81     1.396   .     A
N20    C77     1.360   .     A
N20    C80     1.360   .     A
N20    Ni3     1.895   1_545 S
C77    N21     1.338   .     A
C77    C78     1.377   .     A
C78    C79     1.361   .     A
C78    C88     1.396   .     A
C79    C80     1.377   .     A
C79    C85     1.396   .     A
C80    N23     1.338   .     A
C81    C82     1.406   .     A
C81    H19     1.083   .     S
C82    C83     1.427   1_565 A
C82    O19     1.395   .     S
C83    C82     1.427   1_545 A
C83    C84     1.406   .     A
C83    O20     1.395   .     S
C84    H20     1.083   .     S
C85    C86     1.406   .     A
C85    H21     1.083   .     S
C86    C87     1.427   .     A
C86    O21     1.395   .     S
C87    C88     1.406   .     A
C87    O22     1.395   .     S
C88    H22     1.083   .     S
N22    C89     1.360   1_565 A
N22    C92     1.360   .     A
N22    Ni3     1.895   .     S
C89    N22     1.360   1_545 A
C89    N23     1.338   .     A
C89    C90     1.377   .     A
C90    C91     1.361   1_545 A
C90    C96     1.396   .     A
C91    C90     1.361   1_565 A
C91    C92     1.377   .     A
C91    C93     1.396   .     A
C92    N24     1.338   .     A
C93    C94     1.406   .     A
C93    H23     1.083   .     S
C94    C95     1.427   1_565 A
C94    O23     1.395   .     S
C95    C94     1.427   1_545 A
C95    C96     1.406   .     A
C95    O24     1.395   .     S
C96    H24     1.083   .     S
O17    Zn5     1.803   .     S
O18    Zn5     1.803   .     S
O19    Zn12    1.803   1_565 S
O20    Zn12    1.803   .     S
O21    Zn7     1.803   .     S
O22    Zn7     1.803   .     S
O23    Zn11    1.803   1_565 S
O24    Zn11    1.803   .     S
Ni3    N19     1.895   1_565 S
Ni3    N20     1.895   1_565 S
C97    C98     1.406   .     A
C97    C102    1.396   .     A
C97    H25     1.083   .     S
C98    C99     1.427   1_545 A
C98    O25     1.395   .     S
C99    C98     1.427   1_565 A
C99    C100    1.406   .     A
C99    O26     1.395   .     S
C100   C101    1.396   .     A
C100   H26     1.083   .     S
C101   C102    1.361   1_565 A
C101   C104    1.377   .     A
C102   C101    1.361   1_545 A
C102   C103    1.377   .     A
C103   N25     1.360   .     A
C103   N32     1.338   .     A
N25    C104    1.360   1_545 A
N25    Ni4     1.895   1_556 S
C104   N25     1.360   1_565 A
C104   N26     1.338   .     A
N26    C105    1.338   .     A
C105   N27     1.360   1_556 A
C105   C108    1.377   .     A
N27    C105    1.360   1_554 A
N27    C106    1.360   .     A
N27    Ni4     1.895   1_565 S
C106   C107    1.377   .     A
C106   N29     1.338   .     A
C107   C108    1.361   1_554 A
C107   C116    1.396   .     A
C108   C107    1.361   1_556 A
C108   C113    1.396   .     A
N28    C109    1.360   1_545 A
N28    C112    1.360   .     A
N28    Ni4     1.895   .     S
C109   N28     1.360   1_565 A
C109   N29     1.338   .     A
C109   C110    1.377   .     A
C110   C111    1.361   1_565 A
C110   C120    1.396   .     A
C111   C110    1.361   1_545 A
C111   C112    1.377   .     A
C111   C117    1.396   .     A
C112   N31     1.338   .     A
C113   C114    1.406   .     A
C113   H27     1.083   .     S
C114   C115    1.427   1_556 A
C114   O27     1.395   .     S
C115   C114    1.427   1_554 A
C115   C116    1.406   .     A
C115   O28     1.395   .     S
C116   H28     1.083   .     S
C117   C118    1.406   .     A
C117   H29     1.083   .     S
C118   C119    1.427   1_545 A
C118   O29     1.395   .     S
C119   C118    1.427   1_565 A
C119   C120    1.406   .     A
C119   O30     1.395   .     S
C120   H30     1.083   .     S
N30    C121    1.360   .     A
N30    C124    1.360   1_554 A
N30    Ni4     1.895   .     S
C121   N31     1.338   .     A
C121   C122    1.377   .     A
C122   C123    1.361   1_554 A
C122   C128    1.396   .     A
C123   C122    1.361   1_556 A
C123   C124    1.377   .     A
C123   C125    1.396   .     A
C124   N30     1.360   1_556 A
C124   N32     1.338   .     A
C125   C126    1.406   .     A
C125   H31     1.083   .     S
C126   C127    1.427   1_556 A
C126   O31     1.395   .     S
C127   C126    1.427   1_554 A
C127   C128    1.406   .     A
C127   O32     1.395   .     S
C128   H32     1.083   .     S
O25    Zn12    1.803   .     S
O26    Zn12    1.803   1_565 S
O27    Zn8     1.803   1_556 S
O28    Zn8     1.803   .     S
O29    Zn11    1.803   .     S
O30    Zn11    1.803   1_565 S
O31    Zn6     1.803   1_556 S
O32    Zn6     1.803   .     S
Ni4    N27     1.895   1_545 S
Ni4    N25     1.895   1_554 S
C129   C130    1.399   .     A
C129   C134    1.415   .     A
C129   O33     1.396   .     S
C130   C131    1.377   .     A
C130   O34     1.382   .     S
C131   C132    1.399   .     A
C131   O35     1.382   .     S
C132   C133    1.415   .     A
C132   O36     1.396   .     S
C133   C134    1.401   .     A
C133   O37     1.395   .     S
C134   O38     1.395   .     S
O33    Zn1     1.805   .     S
O34    Cu1     1.813   .     S
O35    Cu1     1.813   .     S
O36    Zn8     1.805   .     S
O37    Zn8     1.800   .     S
O38    Zn1     1.800   .     S
C135   C136    1.399   .     A
C135   C140    1.415   .     A
C135   O39     1.396   .     S
C136   C137    1.377   .     A
C136   O40     1.382   .     S
C137   C138    1.399   .     A
C137   O41     1.382   .     S
C138   C139    1.415   .     A
C138   O42     1.396   .     S
C139   C140    1.401   .     A
C139   O43     1.395   .     S
C140   O44     1.395   .     S
O39    Zn5     1.805   .     S
O40    Cu2     1.813   1_665 S
O41    Cu2     1.813   1_665 S
O42    Zn2     1.805   .     S
O43    Zn2     1.800   .     S
O44    Zn5     1.800   .     S
C141   C142    1.399   .     A
C141   C146    1.377   .     A
C141   O45     1.382   .     S
C142   C143    1.415   .     A
C142   O46     1.396   .     S
C143   C144    1.401   .     A
C143   O47     1.395   .     S
C144   C145    1.415   .     A
C144   O48     1.395   .     S
C145   C146    1.399   .     A
C145   O49     1.396   .     S
C146   O50     1.382   .     S
O45    Cu1     1.813   .     S
O46    Zn3     1.805   .     S
O47    Zn3     1.800   .     S
O48    Zn6     1.800   .     S
O49    Zn6     1.805   .     S
O50    Cu1     1.813   .     S
C147   C148    1.399   .     A
C147   C152    1.377   .     A
C147   O51     1.382   .     S
C148   C149    1.415   .     A
C148   O52     1.396   .     S
C149   C150    1.401   .     A
C149   O53     1.395   .     S
C150   C151    1.415   .     A
C150   O54     1.395   .     S
C151   C152    1.399   .     A
C151   O55     1.396   .     S
C152   O56     1.382   .     S
O51    Cu2     1.813   .     S
O52    Zn7     1.805   .     S
O53    Zn7     1.800   .     S
O54    Zn4     1.800   .     S
O55    Zn4     1.805   .     S
O56    Cu2     1.813   .     S
Cu2    O40     1.813   1_445 S
Cu2    O41     1.813   1_445 S
Zn1    O7      1.803   1_554 S
Zn3    O3      1.803   1_554 S
Zn6    O31     1.803   1_554 S
Zn8    O27     1.803   1_554 S
Zn9    O6      1.803   1_455 S
Zn9    O15     1.803   1_455 S
Zn10   O11     1.803   1_455 S
Zn10   O2      1.803   1_455 S
Zn11   O30     1.803   1_545 S
Zn11   O23     1.803   1_545 S
Zn12   O19     1.803   1_545 S
Zn12   O26     1.803   1_545 S
