data_tfz-B_O-PcM_O-Zntet
_audit_creation_date              2021-11-06
_audit_creation_method            'Materials Studio'
_symmetry_space_group_name_H-M    'P1'
_symmetry_Int_Tables_number       1
_symmetry_cell_setting            triclinic
loop_
_symmetry_equiv_pos_as_xyz
  x,y,z
_cell_length_a                    42.8470
_cell_length_b                    42.8445
_cell_length_c                    17.9086
_cell_angle_alpha                 90.0049
_cell_angle_beta                  89.9945
_cell_angle_gamma                 119.7580
loop_
_atom_site_label
_atom_site_type_symbol
_atom_site_fract_x
_atom_site_fract_y
_atom_site_fract_z
_atom_site_U_iso_or_equiv
_atom_site_adp_type
_atom_site_occupancy
C1     C     0.35491   0.70297   0.00061   0.00000  Uiso   1.00
C2     C     0.32269   0.67013   0.00059   0.00000  Uiso   1.00
C3     C     0.32339   0.63748   0.00049   0.00000  Uiso   1.00
C4     C     0.35631   0.63802   0.00042   0.00000  Uiso   1.00
C5     C     0.38886   0.67120   0.00045   0.00000  Uiso   1.00
C6     C     0.38817   0.70350   0.00055   0.00000  Uiso   1.00
O1     O     0.35462   0.73540   0.00069   0.00000  Uiso   1.00
O2     O     0.28966   0.66919   0.00064   0.00000  Uiso   1.00
O3     O     0.29105   0.60491   0.00046   0.00000  Uiso   1.00
O4     O     0.35739   0.60600   0.00032   0.00000  Uiso   1.00
O5     O     0.42151   0.67134   0.00038   0.00000  Uiso   1.00
O6     O     0.42011   0.73644   0.00057   0.00000  Uiso   1.00
C7     C     0.68947   0.30340   0.00063   0.00000  Uiso   1.00
C8     C     0.72231   0.33562   0.00060   0.00000  Uiso   1.00
C9     C     0.72283   0.36888   0.00050   0.00000  Uiso   1.00
C10    C     0.69052   0.36956   0.00041   0.00000  Uiso   1.00
C11    C     0.65735   0.33699   0.00044   0.00000  Uiso   1.00
C12    C     0.65683   0.30409   0.00055   0.00000  Uiso   1.00
O7     O     0.68855   0.27037   0.00071   0.00000  Uiso   1.00
O8     O     0.75475   0.33535   0.00066   0.00000  Uiso   1.00
O9     O     0.75576   0.40083   0.00047   0.00000  Uiso   1.00
O10    O     0.69066   0.40220   0.00029   0.00000  Uiso   1.00
O11    O     0.62532   0.33807   0.00035   0.00000  Uiso   1.00
O12    O     0.62426   0.27174   0.00057   0.00000  Uiso   1.00
C13    C     0.88196   0.43010   0.07996   0.00000  Uiso   1.00
C14    C     0.84930   0.41395   0.04037   0.00000  Uiso   1.00
C15    C     0.84930   0.41391   0.96071   0.00000  Uiso   1.00
C16    C     0.88195   0.43004   0.92110   0.00000  Uiso   1.00
C17    C     0.91373   0.44580   0.96254   0.00000  Uiso   1.00
C18    C     0.91374   0.44583   0.03850   0.00000  Uiso   1.00
C19    C     0.94924   0.46358   0.06016   0.00000  Uiso   1.00
N1     N     0.97186   0.47488   0.00051   0.00000  Uiso   1.00
C20    C     0.94924   0.46354   0.94087   0.00000  Uiso   1.00
N2     N     0.95965   0.46876   0.86935   0.00000  Uiso   1.00
C21    C     0.99408   0.48606   0.84771   0.00000  Uiso   1.00
N3     N     0.02282   0.50057   0.89465   0.00000  Uiso   1.00
C22    C     0.05155   0.51507   0.84771   0.00000  Uiso   1.00
C23    C     0.04114   0.50979   0.77396   0.00000  Uiso   1.00
C24    C     0.00449   0.49129   0.77397   0.00000  Uiso   1.00
N4     N     0.07377   0.52630   0.00050   0.00000  Uiso   1.00
C25    C     0.09638   0.53780   0.94085   0.00000  Uiso   1.00
N5     N     0.08598   0.53253   0.86933   0.00000  Uiso   1.00
C26    C     0.13189   0.55586   0.96252   0.00000  Uiso   1.00
C27    C     0.13189   0.55583   0.03849   0.00000  Uiso   1.00
C28    C     0.09638   0.53777   0.06015   0.00000  Uiso   1.00
C29    C     0.98459   0.48126   0.70771   0.00000  Uiso   1.00
C30    C     0.00415   0.49113   0.64051   0.00000  Uiso   1.00
C31    C     0.04147   0.50996   0.64051   0.00000  Uiso   1.00
C32    C     0.06104   0.51983   0.70770   0.00000  Uiso   1.00
C33    C     0.16366   0.57206   0.07994   0.00000  Uiso   1.00
C34    C     0.19631   0.58879   0.04035   0.00000  Uiso   1.00
C35    C     0.19632   0.58882   0.96069   0.00000  Uiso   1.00
C36    C     0.16367   0.57212   0.92108   0.00000  Uiso   1.00
N6     N     0.02281   0.50057   0.10636   0.00000  Uiso   1.00
C37    C     0.05155   0.51505   0.15330   0.00000  Uiso   1.00
N7     N     0.08598   0.53248   0.13167   0.00000  Uiso   1.00
C38    C     0.04114   0.50978   0.22704   0.00000  Uiso   1.00
C39    C     0.00449   0.49131   0.22704   0.00000  Uiso   1.00
C40    C     0.99408   0.48609   0.15330   0.00000  Uiso   1.00
C41    C     0.98459   0.48128   0.29331   0.00000  Uiso   1.00
C42    C     0.00415   0.49114   0.36050   0.00000  Uiso   1.00
C43    C     0.04147   0.50996   0.36050   0.00000  Uiso   1.00
C44    C     0.06104   0.51981   0.29330   0.00000  Uiso   1.00
N8     N     0.95965   0.46881   0.13168   0.00000  Uiso   1.00
H1     H     0.88239   0.43039   0.14041   0.00000  Uiso   1.00
O13    O     0.81661   0.39791   0.07852   0.00000  Uiso   1.00
O14    O     0.81660   0.39784   0.92259   0.00000  Uiso   1.00
H2     H     0.88238   0.43028   0.86066   0.00000  Uiso   1.00
H3     H     0.95549   0.46659   0.70802   0.00000  Uiso   1.00
O15    O     0.98790   0.48295   0.57121   0.00000  Uiso   1.00
O16    O     0.05772   0.51815   0.57119   0.00000  Uiso   1.00
H4     H     0.09014   0.53452   0.70799   0.00000  Uiso   1.00
H5     H     0.16322   0.57184   0.14038   0.00000  Uiso   1.00
O17    O     0.22900   0.60554   0.07850   0.00000  Uiso   1.00
O18    O     0.22901   0.60561   0.92257   0.00000  Uiso   1.00
H6     H     0.16325   0.57195   0.86064   0.00000  Uiso   1.00
H7     H     0.95549   0.46662   0.29301   0.00000  Uiso   1.00
O19    O     0.98790   0.48295   0.42981   0.00000  Uiso   1.00
O20    O     0.05772   0.51815   0.42980   0.00000  Uiso   1.00
H8     H     0.09013   0.53449   0.29300   0.00000  Uiso   1.00
Ni1    Ni    0.02281   0.50058   0.00050   0.00000  Uiso   1.00
C45    C     0.53942   0.04173   0.70787   0.00000  Uiso   1.00
C46    C     0.52954   0.02217   0.64067   0.00000  Uiso   1.00
C47    C     0.51069   0.98484   0.64067   0.00000  Uiso   1.00
C48    C     0.50080   0.96528   0.70786   0.00000  Uiso   1.00
C49    C     0.51084   0.98518   0.77412   0.00000  Uiso   1.00
C50    C     0.52935   0.02183   0.77413   0.00000  Uiso   1.00
C51    C     0.53462   0.03224   0.84787   0.00000  Uiso   1.00
N9     N     0.52010   0.00350   0.89481   0.00000  Uiso   1.00
C52    C     0.50558   0.97476   0.84787   0.00000  Uiso   1.00
N10    N     0.48825   0.94033   0.86949   0.00000  Uiso   1.00
C53    C     0.48302   0.92993   0.94101   0.00000  Uiso   1.00
N11    N     0.49437   0.95254   0.00066   0.00000  Uiso   1.00
C54    C     0.48304   0.92993   0.06031   0.00000  Uiso   1.00
C55    C     0.46524   0.89442   0.03864   0.00000  Uiso   1.00
C56    C     0.46523   0.89442   0.96267   0.00000  Uiso   1.00
N12    N     0.52010   0.00350   0.10652   0.00000  Uiso   1.00
C57    C     0.50560   0.97476   0.15346   0.00000  Uiso   1.00
N13    N     0.48828   0.94033   0.13183   0.00000  Uiso   1.00
C58    C     0.51084   0.98518   0.22720   0.00000  Uiso   1.00
C59    C     0.52934   0.02183   0.22720   0.00000  Uiso   1.00
C60    C     0.53460   0.03224   0.15346   0.00000  Uiso   1.00
C61    C     0.44942   0.86263   0.92123   0.00000  Uiso   1.00
C62    C     0.43324   0.82998   0.96082   0.00000  Uiso   1.00
C63    C     0.43326   0.82998   0.04048   0.00000  Uiso   1.00
C64    C     0.44945   0.86263   0.08008   0.00000  Uiso   1.00
C65    C     0.53939   0.04173   0.29347   0.00000  Uiso   1.00
C66    C     0.52953   0.02217   0.36066   0.00000  Uiso   1.00
C67    C     0.51069   0.98484   0.36066   0.00000  Uiso   1.00
C68    C     0.50081   0.96528   0.29346   0.00000  Uiso   1.00
N14    N     0.54586   0.05446   0.00067   0.00000  Uiso   1.00
C69    C     0.55732   0.07708   0.06031   0.00000  Uiso   1.00
N15    N     0.55204   0.06667   0.13183   0.00000  Uiso   1.00
C70    C     0.57536   0.11258   0.03865   0.00000  Uiso   1.00
C71    C     0.57538   0.11258   0.96269   0.00000  Uiso   1.00
C72    C     0.55734   0.07707   0.94102   0.00000  Uiso   1.00
C73    C     0.59160   0.14436   0.92124   0.00000  Uiso   1.00
C74    C     0.60826   0.17701   0.96084   0.00000  Uiso   1.00
C75    C     0.60823   0.17701   0.04050   0.00000  Uiso   1.00
C76    C     0.59155   0.14436   0.08010   0.00000  Uiso   1.00
N16    N     0.55207   0.06667   0.86950   0.00000  Uiso   1.00
H9     H     0.55412   0.07083   0.70818   0.00000  Uiso   1.00
O21    O     0.53775   0.03842   0.57137   0.00000  Uiso   1.00
O22    O     0.50249   0.96859   0.57136   0.00000  Uiso   1.00
H10    H     0.48610   0.93618   0.70816   0.00000  Uiso   1.00
H11    H     0.44967   0.86306   0.86078   0.00000  Uiso   1.00
O23    O     0.41714   0.79728   0.92268   0.00000  Uiso   1.00
O24    O     0.41718   0.79728   0.07861   0.00000  Uiso   1.00
H12    H     0.44973   0.86306   0.14053   0.00000  Uiso   1.00
H13    H     0.55408   0.07083   0.29317   0.00000  Uiso   1.00
O25    O     0.53774   0.03842   0.42997   0.00000  Uiso   1.00
O26    O     0.50250   0.96859   0.42996   0.00000  Uiso   1.00
H14    H     0.48613   0.93618   0.29316   0.00000  Uiso   1.00
H15    H     0.59141   0.14393   0.86080   0.00000  Uiso   1.00
O27    O     0.62500   0.20970   0.92270   0.00000  Uiso   1.00
O28    O     0.62495   0.20971   0.07863   0.00000  Uiso   1.00
H16    H     0.59133   0.14394   0.14054   0.00000  Uiso   1.00
Ni2    Ni    0.52011   0.00350   0.00066   0.00000  Uiso   1.00
C77    C     0.50668   0.52574   0.29299   0.00000  Uiso   1.00
C78    C     0.51652   0.51594   0.36018   0.00000  Uiso   1.00
C79    C     0.53524   0.49721   0.36018   0.00000  Uiso   1.00
C80    C     0.54504   0.48737   0.29298   0.00000  Uiso   1.00
C81    C     0.53505   0.49734   0.22672   0.00000  Uiso   1.00
C82    C     0.51665   0.51574   0.22673   0.00000  Uiso   1.00
C83    C     0.51138   0.52092   0.15299   0.00000  Uiso   1.00
N17    N     0.52579   0.50648   0.10604   0.00000  Uiso   1.00
C84    C     0.54023   0.49208   0.15298   0.00000  Uiso   1.00
N18    N     0.55742   0.47471   0.13134   0.00000  Uiso   1.00
C85    C     0.56259   0.46944   0.05982   0.00000  Uiso   1.00
N19    N     0.55133   0.48087   0.00018   0.00000  Uiso   1.00
C86    C     0.56257   0.46941   0.94053   0.00000  Uiso   1.00
C87    C     0.58022   0.45142   0.96219   0.00000  Uiso   1.00
C88    C     0.58023   0.45144   0.03816   0.00000  Uiso   1.00
N20    N     0.52580   0.50648   0.89433   0.00000  Uiso   1.00
C89    C     0.54022   0.49206   0.84738   0.00000  Uiso   1.00
N21    N     0.55739   0.47467   0.86901   0.00000  Uiso   1.00
C90    C     0.53504   0.49733   0.77364   0.00000  Uiso   1.00
C91    C     0.51666   0.51574   0.77365   0.00000  Uiso   1.00
C92    C     0.51140   0.52093   0.84740   0.00000  Uiso   1.00
C93    C     0.59592   0.43524   0.07962   0.00000  Uiso   1.00
C94    C     0.61200   0.41855   0.04004   0.00000  Uiso   1.00
C95    C     0.61200   0.41853   0.96038   0.00000  Uiso   1.00
C96    C     0.59591   0.43520   0.92076   0.00000  Uiso   1.00
C97    C     0.50669   0.52575   0.70740   0.00000  Uiso   1.00
C98    C     0.51652   0.51595   0.64020   0.00000  Uiso   1.00
C99    C     0.53524   0.49720   0.64018   0.00000  Uiso   1.00
C100   C     0.54503   0.48736   0.70737   0.00000  Uiso   1.00
N22    N     0.50020   0.53203   0.00019   0.00000  Uiso   1.00
C101   C     0.48877   0.54330   0.94055   0.00000  Uiso   1.00
N23    N     0.49404   0.53813   0.86903   0.00000  Uiso   1.00
C102   C     0.47078   0.56095   0.96223   0.00000  Uiso   1.00
C103   C     0.47077   0.56093   0.03819   0.00000  Uiso   1.00
C104   C     0.48875   0.54328   0.05984   0.00000  Uiso   1.00
C105   C     0.45455   0.57660   0.07966   0.00000  Uiso   1.00
C106   C     0.43787   0.59270   0.04008   0.00000  Uiso   1.00
C107   C     0.43788   0.59271   0.96042   0.00000  Uiso   1.00
C108   C     0.45457   0.57664   0.92080   0.00000  Uiso   1.00
N24    N     0.49401   0.53810   0.13136   0.00000  Uiso   1.00
H17    H     0.49207   0.54034   0.29269   0.00000  Uiso   1.00
O29    O     0.50837   0.52411   0.42949   0.00000  Uiso   1.00
O30    O     0.54341   0.48907   0.42948   0.00000  Uiso   1.00
H18    H     0.55964   0.47277   0.29268   0.00000  Uiso   1.00
H19    H     0.59568   0.43544   0.14006   0.00000  Uiso   1.00
O31    O     0.62805   0.40178   0.07820   0.00000  Uiso   1.00
O32    O     0.62803   0.40174   0.92227   0.00000  Uiso   1.00
H20    H     0.59565   0.43537   0.86032   0.00000  Uiso   1.00
H21    H     0.49210   0.54036   0.70771   0.00000  Uiso   1.00
O33    O     0.50838   0.52412   0.57089   0.00000  Uiso   1.00
O34    O     0.54340   0.48906   0.57087   0.00000  Uiso   1.00
H22    H     0.55962   0.47274   0.70766   0.00000  Uiso   1.00
H23    H     0.45472   0.57634   0.14010   0.00000  Uiso   1.00
O35    O     0.42108   0.60872   0.07824   0.00000  Uiso   1.00
O36    O     0.42110   0.60876   0.92231   0.00000  Uiso   1.00
H24    H     0.45476   0.57640   0.86035   0.00000  Uiso   1.00
Ni3    Ni    0.52578   0.50647   0.00018   0.00000  Uiso   1.00
Cu1    Cu    0.02281   0.50055   0.50050   0.00000  Uiso   1.00
Cu2    Cu    0.52012   0.00351   0.50066   0.00000  Uiso   1.00
Cu3    Cu    0.52589   0.50659   0.50019   0.00000  Uiso   1.00
Zn1    Zn    0.25965   0.62130   0.00054   0.00000  Uiso   1.00
Zn2    Zn    0.64068   0.24035   0.00066   0.00000  Uiso   1.00
Zn3    Zn    0.40529   0.62370   0.00030   0.00000  Uiso   1.00
Zn4    Zn    0.78596   0.38297   0.00056   0.00000  Uiso   1.00
Zn5    Zn    0.40225   0.76663   0.00064   0.00000  Uiso   1.00
Zn6    Zn    0.64301   0.38597   0.00026   0.00000  Uiso   1.00
loop_
_geom_bond_atom_site_label_1
_geom_bond_atom_site_label_2
_geom_bond_distance
_geom_bond_site_symmetry_2
_ccdc_geom_bond_type
C1     C2      1.399   .     A
C1     C6      1.414   .     A
C1     O1      1.396   .     S
C2     C3      1.414   .     A
C2     O2      1.396   .     S
C3     C4      1.399   .     A
C3     O3      1.396   .     S
C4     C5      1.414   .     A
C4     O4      1.396   .     S
C5     C6      1.399   .     A
C5     O5      1.396   .     S
C6     O6      1.396   .     S
O1     Zn5     1.801   .     S
O2     Zn1     1.801   .     S
O3     Zn1     1.800   .     S
O4     Zn3     1.801   .     S
O5     Zn3     1.801   .     S
O6     Zn5     1.800   .     S
C7     C8      1.399   .     A
C7     C12     1.414   .     A
C7     O7      1.396   .     S
C8     C9      1.414   .     A
C8     O8      1.396   .     S
C9     C10     1.399   .     A
C9     O9      1.396   .     S
C10    C11     1.414   .     A
C10    O10     1.396   .     S
C11    C12     1.399   .     A
C11    O11     1.396   .     S
C12    O12     1.396   .     S
O7     Zn2     1.801   .     S
O8     Zn4     1.801   .     S
O9     Zn4     1.800   .     S
O10    Zn6     1.801   .     S
O11    Zn6     1.801   .     S
O12    Zn2     1.800   .     S
C13    C14     1.406   .     A
C13    C18     1.396   .     A
C13    H1      1.083   .     S
C14    C15     1.427   1_554 A
C14    O13     1.395   .     S
C15    C14     1.427   1_556 A
C15    C16     1.406   .     A
C15    O14     1.395   .     S
C16    C17     1.396   .     A
C16    H2      1.083   .     S
C17    C18     1.360   1_556 A
C17    C20     1.377   .     A
C18    C17     1.360   1_554 A
C18    C19     1.377   .     A
C19    N1      1.360   .     A
C19    N8      1.338   .     A
N1     C20     1.360   1_554 A
N1     Ni1     1.896   1_655 S
C20    N1      1.360   1_556 A
C20    N2      1.338   .     A
N2     C21     1.338   .     A
C21    N3      1.360   1_655 A
C21    C24     1.376   1_655 A
N3     C21     1.360   1_455 A
N3     C22     1.360   .     A
N3     Ni1     1.896   1_556 S
C22    C23     1.376   .     A
C22    N5      1.338   .     A
C23    C24     1.363   .     A
C23    C32     1.399   .     A
C24    C21     1.376   1_455 A
C24    C29     1.399   1_455 A
N4     C25     1.360   1_554 A
N4     C28     1.360   .     A
N4     Ni1     1.896   .     S
C25    N4      1.360   1_556 A
C25    N5      1.338   .     A
C25    C26     1.377   .     A
C26    C27     1.360   1_556 A
C26    C36     1.396   .     A
C27    C26     1.360   1_554 A
C27    C28     1.377   .     A
C27    C33     1.396   .     A
C28    N7      1.338   .     A
C29    C24     1.399   1_655 A
C29    C30     1.406   1_655 A
C29    H3      1.082   .     S
C30    C29     1.406   1_455 A
C30    C31     1.388   .     A
C30    O15     1.381   1_455 S
C31    C32     1.406   .     A
C31    O16     1.381   .     S
C32    H4      1.082   .     S
C33    C34     1.406   .     A
C33    H5      1.083   .     S
C34    C35     1.427   1_554 A
C34    O17     1.395   .     S
C35    C34     1.427   1_556 A
C35    C36     1.406   .     A
C35    O18     1.395   .     S
C36    H6      1.083   .     S
N6     C37     1.360   .     A
N6     C40     1.360   1_455 A
N6     Ni1     1.896   .     S
C37    N7      1.338   .     A
C37    C38     1.376   .     A
C38    C39     1.363   .     A
C38    C44     1.399   .     A
C39    C40     1.376   1_455 A
C39    C41     1.399   1_455 A
C40    C39     1.376   1_655 A
C40    N6      1.360   1_655 A
C40    N8      1.338   .     A
C41    C39     1.399   1_655 A
C41    C42     1.406   1_655 A
C41    H7      1.082   .     S
C42    C41     1.406   1_455 A
C42    C43     1.388   .     A
C42    O19     1.381   1_455 S
C43    C44     1.406   .     A
C43    O20     1.381   .     S
C44    H8      1.082   .     S
O13    Zn4     1.803   .     S
O14    Zn4     1.803   1_556 S
O15    C30     1.381   1_655 S
O15    Cu1     1.814   1_655 S
O16    Cu1     1.814   .     S
O17    Zn1     1.803   .     S
O18    Zn1     1.803   1_556 S
O19    C42     1.381   1_655 S
O19    Cu1     1.814   1_655 S
O20    Cu1     1.814   .     S
Ni1    N1      1.896   1_455 S
Ni1    N3      1.896   1_554 S
C45    C46     1.406   .     A
C45    C50     1.399   .     A
C45    H9      1.082   .     S
C46    C47     1.388   1_545 A
C46    O21     1.381   .     S
C47    C46     1.388   1_565 A
C47    C48     1.406   .     A
C47    O22     1.381   .     S
C48    C49     1.399   .     A
C48    H10     1.082   .     S
C49    C50     1.363   1_565 A
C49    C52     1.376   .     A
C50    C49     1.363   1_545 A
C50    C51     1.376   .     A
C51    N9      1.360   .     A
C51    N16     1.338   .     A
N9     C52     1.360   1_545 A
N9     Ni2     1.896   1_556 S
C52    N9      1.360   1_565 A
C52    N10     1.338   .     A
N10    C53     1.338   .     A
C53    N11     1.360   1_556 A
C53    C56     1.377   .     A
N11    C53     1.360   1_554 A
N11    C54     1.360   .     A
N11    Ni2     1.896   1_565 S
C54    C55     1.377   .     A
C54    N13     1.338   .     A
C55    C56     1.360   1_554 A
C55    C64     1.396   .     A
C56    C55     1.360   1_556 A
C56    C61     1.396   .     A
N12    C57     1.360   1_545 A
N12    C60     1.360   .     A
N12    Ni2     1.896   .     S
C57    N12     1.360   1_565 A
C57    N13     1.338   .     A
C57    C58     1.376   .     A
C58    C59     1.363   1_565 A
C58    C68     1.399   .     A
C59    C58     1.363   1_545 A
C59    C60     1.376   .     A
C59    C65     1.399   .     A
C60    N15     1.338   .     A
C61    C62     1.406   .     A
C61    H11     1.083   .     S
C62    C63     1.427   1_556 A
C62    O23     1.395   .     S
C63    C62     1.427   1_554 A
C63    C64     1.406   .     A
C63    O24     1.395   .     S
C64    H12     1.083   .     S
C65    C66     1.406   .     A
C65    H13     1.082   .     S
C66    C67     1.388   1_545 A
C66    O25     1.381   .     S
C67    C66     1.388   1_565 A
C67    C68     1.406   .     A
C67    O26     1.381   .     S
C68    H14     1.082   .     S
N14    C69     1.360   .     A
N14    C72     1.360   1_554 A
N14    Ni2     1.896   .     S
C69    N15     1.338   .     A
C69    C70     1.377   .     A
C70    C71     1.360   1_554 A
C70    C76     1.396   .     A
C71    C70     1.360   1_556 A
C71    C72     1.377   .     A
C71    C73     1.396   .     A
C72    N14     1.360   1_556 A
C72    N16     1.338   .     A
C73    C74     1.406   .     A
C73    H15     1.083   .     S
C74    C75     1.427   1_556 A
C74    O27     1.395   .     S
C75    C74     1.427   1_554 A
C75    C76     1.406   .     A
C75    O28     1.395   .     S
C76    H16     1.083   .     S
O21    Cu2     1.814   .     S
O22    Cu2     1.814   1_565 S
O23    Zn5     1.803   1_556 S
O24    Zn5     1.803   .     S
O25    Cu2     1.814   .     S
O26    Cu2     1.814   1_565 S
O27    Zn2     1.803   1_556 S
O28    Zn2     1.803   .     S
Ni2    N11     1.896   1_545 S
Ni2    N9      1.896   1_554 S
C77    C78     1.406   .     A
C77    C82     1.399   .     A
C77    H17     1.082   .     S
C78    C79     1.388   .     A
C78    O29     1.381   .     S
C79    C80     1.406   .     A
C79    O30     1.381   .     S
C80    C81     1.399   .     A
C80    H18     1.082   .     S
C81    C82     1.363   .     A
C81    C84     1.376   .     A
C82    C83     1.376   .     A
C83    N17     1.360   .     A
C83    N24     1.338   .     A
N17    C84     1.360   .     A
N17    Ni3     1.896   .     S
C84    N18     1.338   .     A
N18    C85     1.338   .     A
C85    N19     1.360   .     A
C85    C88     1.377   .     A
N19    C86     1.360   1_554 A
N19    Ni3     1.896   .     S
C86    N19     1.360   1_556 A
C86    C87     1.377   .     A
C86    N21     1.338   .     A
C87    C88     1.360   1_556 A
C87    C96     1.396   .     A
C88    C87     1.360   1_554 A
C88    C93     1.396   .     A
N20    C89     1.360   .     A
N20    C92     1.360   .     A
N20    Ni3     1.896   1_556 S
C89    N21     1.338   .     A
C89    C90     1.376   .     A
C90    C91     1.363   .     A
C90    C100    1.399   .     A
C91    C92     1.376   .     A
C91    C97     1.399   .     A
C92    N23     1.338   .     A
C93    C94     1.406   .     A
C93    H19     1.083   .     S
C94    C95     1.427   1_554 A
C94    O31     1.395   .     S
C95    C94     1.427   1_556 A
C95    C96     1.407   .     A
C95    O32     1.395   .     S
C96    H20     1.083   .     S
C97    C98     1.406   .     A
C97    H21     1.082   .     S
C98    C99     1.388   .     A
C98    O33     1.381   .     S
C99    C100    1.406   .     A
C99    O34     1.381   .     S
C100   H22     1.082   .     S
N22    C101    1.360   1_554 A
N22    C104    1.360   .     A
N22    Ni3     1.896   .     S
C101   N22     1.360   1_556 A
C101   N23     1.338   .     A
C101   C102    1.377   .     A
C102   C103    1.360   1_556 A
C102   C108    1.396   .     A
C103   C102    1.360   1_554 A
C103   C104    1.377   .     A
C103   C105    1.396   .     A
C104   N24     1.338   .     A
C105   C106    1.406   .     A
C105   H23     1.083   .     S
C106   C107    1.427   1_554 A
C106   O35     1.395   .     S
C107   C106    1.427   1_556 A
C107   C108    1.406   .     A
C107   O36     1.395   .     S
C108   H24     1.083   .     S
O29    Cu3     1.814   .     S
O30    Cu3     1.814   .     S
O31    Zn6     1.803   .     S
O32    Zn6     1.803   1_556 S
O33    Cu3     1.814   .     S
O34    Cu3     1.814   .     S
O35    Zn3     1.803   .     S
O36    Zn3     1.803   1_556 S
Ni3    N20     1.896   1_554 S
Cu1    O15     1.814   1_455 S
Cu1    O19     1.814   1_455 S
Cu2    O22     1.814   1_545 S
Cu2    O26     1.814   1_545 S
Zn1    O18     1.803   1_554 S
Zn2    O27     1.803   1_554 S
Zn3    O36     1.803   1_554 S
Zn4    O14     1.803   1_554 S
Zn5    O23     1.803   1_554 S
Zn6    O32     1.803   1_554 S
