data_tfz-TP_O-PcMN_O-Zntet
_audit_creation_date              2021-11-06
_audit_creation_method            'Materials Studio'
_symmetry_space_group_name_H-M    'P1'
_symmetry_Int_Tables_number       1
_symmetry_cell_setting            triclinic
loop_
_symmetry_equiv_pos_as_xyz
  x,y,z
_cell_length_a                    60.0073
_cell_length_b                    60.0055
_cell_length_c                    22.7689
_cell_angle_alpha                 89.9735
_cell_angle_beta                  90.0034
_cell_angle_gamma                 120.3473
loop_
_atom_site_label
_atom_site_type_symbol
_atom_site_fract_x
_atom_site_fract_y
_atom_site_fract_z
_atom_site_U_iso_or_equiv
_atom_site_adp_type
_atom_site_occupancy
C1     C     0.36225   0.70238   0.00656   0.00000  Uiso   1.00
C2     C     0.33804   0.70164   0.00644   0.00000  Uiso   1.00
C3     C     0.31444   0.67739   0.00646   0.00000  Uiso   1.00
C4     C     0.31501   0.65384   0.00649   0.00000  Uiso   1.00
C5     C     0.33919   0.65458   0.00650   0.00000  Uiso   1.00
C6     C     0.36282   0.67887   0.00652   0.00000  Uiso   1.00
C7     C     0.29108   0.63004   0.00651   0.00000  Uiso   1.00
C8     C     0.26758   0.62931   0.00654   0.00000  Uiso   1.00
C9     C     0.26703   0.65229   0.00655   0.00000  Uiso   1.00
C10    C     0.28997   0.67586   0.00653   0.00000  Uiso   1.00
C11    C     0.38535   0.72694   0.00673   0.00000  Uiso   1.00
C12    C     0.38480   0.74979   0.00668   0.00000  Uiso   1.00
C13    C     0.36118   0.74906   0.00646   0.00000  Uiso   1.00
C14    C     0.33826   0.72549   0.00632   0.00000  Uiso   1.00
C15    C     0.38653   0.67882   0.00647   0.00000  Uiso   1.00
C16    C     0.38710   0.65597   0.00650   0.00000  Uiso   1.00
C17    C     0.36404   0.63227   0.00653   0.00000  Uiso   1.00
C18    C     0.34055   0.63156   0.00650   0.00000  Uiso   1.00
H1     H     0.28957   0.61143   0.00651   0.00000  Uiso   1.00
O1     O     0.24440   0.60571   0.00659   0.00000  Uiso   1.00
O2     O     0.24331   0.65138   0.00661   0.00000  Uiso   1.00
H2     H     0.28760   0.69244   0.00660   0.00000  Uiso   1.00
H3     H     0.40438   0.72943   0.00696   0.00000  Uiso   1.00
O3     O     0.40776   0.77360   0.00684   0.00000  Uiso   1.00
O4     O     0.36081   0.77215   0.00640   0.00000  Uiso   1.00
H4     H     0.32110   0.72687   0.00609   0.00000  Uiso   1.00
H5     H     0.40520   0.69605   0.00637   0.00000  Uiso   1.00
O5     O     0.41063   0.65649   0.00651   0.00000  Uiso   1.00
O6     O     0.36480   0.60940   0.00657   0.00000  Uiso   1.00
H6     H     0.32389   0.61249   0.00650   0.00000  Uiso   1.00
C19    C     0.64653   0.32235   0.00732   0.00000  Uiso   1.00
C20    C     0.67007   0.32178   0.00742   0.00000  Uiso   1.00
C21    C     0.69432   0.34537   0.00744   0.00000  Uiso   1.00
C22    C     0.69507   0.36958   0.00739   0.00000  Uiso   1.00
C23    C     0.67156   0.37015   0.00741   0.00000  Uiso   1.00
C24    C     0.64727   0.34652   0.00737   0.00000  Uiso   1.00
C25    C     0.71962   0.39269   0.00730   0.00000  Uiso   1.00
C26    C     0.74248   0.39214   0.00730   0.00000  Uiso   1.00
C27    C     0.74175   0.36851   0.00738   0.00000  Uiso   1.00
C28    C     0.71817   0.34559   0.00744   0.00000  Uiso   1.00
C29    C     0.62273   0.29841   0.00716   0.00000  Uiso   1.00
C30    C     0.62200   0.27491   0.00717   0.00000  Uiso   1.00
C31    C     0.64498   0.27436   0.00734   0.00000  Uiso   1.00
C32    C     0.66854   0.29730   0.00747   0.00000  Uiso   1.00
C33    C     0.62425   0.34789   0.00740   0.00000  Uiso   1.00
C34    C     0.62496   0.37138   0.00742   0.00000  Uiso   1.00
C35    C     0.64866   0.39444   0.00746   0.00000  Uiso   1.00
C36    C     0.67150   0.39387   0.00749   0.00000  Uiso   1.00
H7     H     0.72212   0.41172   0.00718   0.00000  Uiso   1.00
O7     O     0.76629   0.41510   0.00721   0.00000  Uiso   1.00
O8     O     0.76483   0.36814   0.00736   0.00000  Uiso   1.00
H8     H     0.71955   0.32843   0.00747   0.00000  Uiso   1.00
H9     H     0.60412   0.29690   0.00699   0.00000  Uiso   1.00
O9     O     0.59839   0.25173   0.00702   0.00000  Uiso   1.00
O10    O     0.64407   0.25064   0.00734   0.00000  Uiso   1.00
H10    H     0.68512   0.29493   0.00761   0.00000  Uiso   1.00
H11    H     0.60518   0.33123   0.00744   0.00000  Uiso   1.00
O11    O     0.60208   0.37214   0.00739   0.00000  Uiso   1.00
O12    O     0.64918   0.41797   0.00748   0.00000  Uiso   1.00
H12    H     0.68873   0.41253   0.00759   0.00000  Uiso   1.00
C37    C     0.03216   0.52087   0.23693   0.00000  Uiso   1.00
C38    C     0.01854   0.51412   0.29061   0.00000  Uiso   1.00
C39    C     0.99084   0.50049   0.29062   0.00000  Uiso   1.00
C40    C     0.97723   0.49383   0.23695   0.00000  Uiso   1.00
C41    C     0.99158   0.50093   0.18513   0.00000  Uiso   1.00
C42    C     0.01781   0.51384   0.18511   0.00000  Uiso   1.00
C43    C     0.02531   0.51757   0.12709   0.00000  Uiso   1.00
N1     N     0.00469   0.50744   0.09017   0.00000  Uiso   1.00
C44    C     0.98407   0.49728   0.12713   0.00000  Uiso   1.00
N2     N     0.95934   0.48518   0.11014   0.00000  Uiso   1.00
C45    C     0.95186   0.48153   0.05389   0.00000  Uiso   1.00
N3     N     0.96809   0.48944   0.00697   0.00000  Uiso   1.00
C46    C     0.95185   0.48151   0.96009   0.00000  Uiso   1.00
C47    C     0.92635   0.46909   0.97719   0.00000  Uiso   1.00
C48    C     0.92636   0.46911   0.03685   0.00000  Uiso   1.00
N4     N     0.00467   0.50741   0.92372   0.00000  Uiso   1.00
C49    C     0.98405   0.49724   0.88679   0.00000  Uiso   1.00
N5     N     0.95932   0.48514   0.90382   0.00000  Uiso   1.00
C50    C     0.99155   0.50089   0.82878   0.00000  Uiso   1.00
C51    C     0.01778   0.51381   0.82876   0.00000  Uiso   1.00
C52    C     0.02529   0.51755   0.88676   0.00000  Uiso   1.00
C53    C     0.90358   0.45809   0.06948   0.00000  Uiso   1.00
C54    C     0.87997   0.44669   0.03853   0.00000  Uiso   1.00
C55    C     0.87996   0.44667   0.97565   0.00000  Uiso   1.00
C56    C     0.90356   0.45806   0.94463   0.00000  Uiso   1.00
C57    C     0.03213   0.52084   0.77693   0.00000  Uiso   1.00
C58    C     0.01851   0.51409   0.72327   0.00000  Uiso   1.00
C59    C     0.99081   0.50044   0.72328   0.00000  Uiso   1.00
C60    C     0.97720   0.49378   0.77696   0.00000  Uiso   1.00
N6     N     0.04127   0.52545   0.00691   0.00000  Uiso   1.00
C61    C     0.05751   0.53351   0.96000   0.00000  Uiso   1.00
N7     N     0.05002   0.52980   0.90375   0.00000  Uiso   1.00
C62    C     0.08301   0.54622   0.97704   0.00000  Uiso   1.00
C63    C     0.08302   0.54622   0.03670   0.00000  Uiso   1.00
C64    C     0.05752   0.53352   0.05380   0.00000  Uiso   1.00
C65    C     0.10582   0.55769   0.06926   0.00000  Uiso   1.00
C66    C     0.12942   0.56960   0.03824   0.00000  Uiso   1.00
C67    C     0.12941   0.56960   0.97536   0.00000  Uiso   1.00
C68    C     0.10580   0.55768   0.94441   0.00000  Uiso   1.00
N8     N     0.05005   0.52981   0.11007   0.00000  Uiso   1.00
H13    H     0.05307   0.53116   0.23564   0.00000  Uiso   1.00
H14    H     0.95631   0.48353   0.23568   0.00000  Uiso   1.00
H15    H     0.90416   0.45840   0.11705   0.00000  Uiso   1.00
H16    H     0.90411   0.45835   0.89705   0.00000  Uiso   1.00
H17    H     0.05304   0.53114   0.77821   0.00000  Uiso   1.00
H18    H     0.95628   0.48347   0.77825   0.00000  Uiso   1.00
H19    H     0.10526   0.55744   0.11683   0.00000  Uiso   1.00
H20    H     0.10522   0.55744   0.89684   0.00000  Uiso   1.00
C69    C     0.15297   0.58156   0.06868   0.00000  Uiso   1.00
C70    C     0.17627   0.59346   0.03774   0.00000  Uiso   1.00
C71    C     0.17626   0.59346   0.97571   0.00000  Uiso   1.00
C72    C     0.15295   0.58156   0.94485   0.00000  Uiso   1.00
C73    C     0.03190   0.52065   0.34432   0.00000  Uiso   1.00
C74    C     0.01795   0.51374   0.39682   0.00000  Uiso   1.00
C75    C     0.99141   0.50068   0.39683   0.00000  Uiso   1.00
C76    C     0.97748   0.49386   0.34433   0.00000  Uiso   1.00
C77    C     0.85645   0.43537   0.06904   0.00000  Uiso   1.00
C78    C     0.83314   0.42415   0.03818   0.00000  Uiso   1.00
C79    C     0.83313   0.42413   0.97615   0.00000  Uiso   1.00
C80    C     0.85642   0.43533   0.94521   0.00000  Uiso   1.00
C81    C     0.03187   0.52062   0.66955   0.00000  Uiso   1.00
C82    C     0.01794   0.51372   0.61706   0.00000  Uiso   1.00
C83    C     0.99140   0.50065   0.61707   0.00000  Uiso   1.00
C84    C     0.97746   0.49382   0.66957   0.00000  Uiso   1.00
H21    H     0.15331   0.58175   0.11627   0.00000  Uiso   1.00
O13    O     0.19975   0.60552   0.06782   0.00000  Uiso   1.00
O14    O     0.19972   0.60553   0.94555   0.00000  Uiso   1.00
H22    H     0.15326   0.58175   0.89725   0.00000  Uiso   1.00
H23    H     0.05281   0.53094   0.34549   0.00000  Uiso   1.00
O15    O     0.02969   0.51948   0.45129   0.00000  Uiso   1.00
O16    O     0.97967   0.49485   0.45130   0.00000  Uiso   1.00
H24    H     0.95656   0.48356   0.34551   0.00000  Uiso   1.00
H25    H     0.85614   0.43523   0.11663   0.00000  Uiso   1.00
O17    O     0.80969   0.41288   0.06834   0.00000  Uiso   1.00
O18    O     0.80966   0.41284   0.94607   0.00000  Uiso   1.00
H26    H     0.85609   0.43517   0.89762   0.00000  Uiso   1.00
H27    H     0.05279   0.53092   0.66837   0.00000  Uiso   1.00
O19    O     0.02968   0.51947   0.56259   0.00000  Uiso   1.00
O20    O     0.97966   0.49484   0.56260   0.00000  Uiso   1.00
H28    H     0.95654   0.48352   0.66840   0.00000  Uiso   1.00
Ni1    Ni    0.00468   0.50743   0.00694   0.00000  Uiso   1.00
C85    C     0.51344   0.03943   0.23685   0.00000  Uiso   1.00
C86    C     0.50669   0.02582   0.29053   0.00000  Uiso   1.00
C87    C     0.49305   0.99812   0.29057   0.00000  Uiso   1.00
C88    C     0.48638   0.98450   0.23691   0.00000  Uiso   1.00
C89    C     0.49348   0.99885   0.18506   0.00000  Uiso   1.00
C90    C     0.50641   0.02509   0.18504   0.00000  Uiso   1.00
C91    C     0.51016   0.03260   0.12703   0.00000  Uiso   1.00
N9     N     0.50004   0.01198   0.09010   0.00000  Uiso   1.00
C92    C     0.48985   0.99135   0.12705   0.00000  Uiso   1.00
N10    N     0.47776   0.96662   0.11005   0.00000  Uiso   1.00
C93    C     0.47415   0.95916   0.05378   0.00000  Uiso   1.00
N11    N     0.48212   0.97542   0.00688   0.00000  Uiso   1.00
C94    C     0.47423   0.95919   0.95998   0.00000  Uiso   1.00
C95    C     0.46180   0.93369   0.97704   0.00000  Uiso   1.00
C96    C     0.46174   0.93367   0.03670   0.00000  Uiso   1.00
N12    N     0.50015   0.01203   0.92365   0.00000  Uiso   1.00
C97    C     0.49000   0.99141   0.88672   0.00000  Uiso   1.00
N13    N     0.47790   0.96668   0.90373   0.00000  Uiso   1.00
C98    C     0.49367   0.99892   0.82871   0.00000  Uiso   1.00
C99    C     0.50659   0.02516   0.82869   0.00000  Uiso   1.00
C100   C     0.51030   0.03266   0.88670   0.00000  Uiso   1.00
C101   C     0.45068   0.91086   0.06927   0.00000  Uiso   1.00
C102   C     0.43931   0.88727   0.03826   0.00000  Uiso   1.00
C103   C     0.43939   0.88730   0.97538   0.00000  Uiso   1.00
C104   C     0.45081   0.91092   0.94442   0.00000  Uiso   1.00
C105   C     0.51362   0.03951   0.77684   0.00000  Uiso   1.00
C106   C     0.50687   0.02589   0.72318   0.00000  Uiso   1.00
C107   C     0.49323   0.99819   0.72322   0.00000  Uiso   1.00
C108   C     0.48658   0.98457   0.77691   0.00000  Uiso   1.00
N14    N     0.51812   0.04860   0.00687   0.00000  Uiso   1.00
C109   C     0.52623   0.06485   0.95997   0.00000  Uiso   1.00
N15    N     0.52254   0.05739   0.90371   0.00000  Uiso   1.00
C110   C     0.53892   0.09035   0.97706   0.00000  Uiso   1.00
C111   C     0.53887   0.09033   0.03672   0.00000  Uiso   1.00
C112   C     0.52616   0.06482   0.05377   0.00000  Uiso   1.00
C113   C     0.55031   0.11311   0.06934   0.00000  Uiso   1.00
C114   C     0.56225   0.13673   0.03839   0.00000  Uiso   1.00
C115   C     0.56231   0.13676   0.97551   0.00000  Uiso   1.00
C116   C     0.55042   0.11316   0.94449   0.00000  Uiso   1.00
N16    N     0.52242   0.05733   0.11003   0.00000  Uiso   1.00
H29    H     0.52375   0.06035   0.23554   0.00000  Uiso   1.00
H30    H     0.47609   0.96358   0.23565   0.00000  Uiso   1.00
H31    H     0.45092   0.91141   0.11684   0.00000  Uiso   1.00
H32    H     0.45115   0.91151   0.89685   0.00000  Uiso   1.00
H33    H     0.52392   0.06042   0.77810   0.00000  Uiso   1.00
H34    H     0.47628   0.96366   0.77822   0.00000  Uiso   1.00
H35    H     0.55002   0.11252   0.11691   0.00000  Uiso   1.00
H36    H     0.55021   0.11262   0.89692   0.00000  Uiso   1.00
C117   C     0.57418   0.16026   0.06890   0.00000  Uiso   1.00
C118   C     0.58611   0.18358   0.03804   0.00000  Uiso   1.00
C119   C     0.58618   0.18361   0.97601   0.00000  Uiso   1.00
C120   C     0.57431   0.16032   0.94507   0.00000  Uiso   1.00
C121   C     0.51324   0.03918   0.34422   0.00000  Uiso   1.00
C122   C     0.50635   0.02525   0.39674   0.00000  Uiso   1.00
C123   C     0.49328   0.99871   0.39678   0.00000  Uiso   1.00
C124   C     0.48644   0.98476   0.34430   0.00000  Uiso   1.00
C125   C     0.42794   0.86372   0.06870   0.00000  Uiso   1.00
C126   C     0.41677   0.84044   0.03776   0.00000  Uiso   1.00
C127   C     0.41685   0.84047   0.97573   0.00000  Uiso   1.00
C128   C     0.42810   0.86379   0.94487   0.00000  Uiso   1.00
C129   C     0.51339   0.03924   0.66945   0.00000  Uiso   1.00
C130   C     0.50646   0.02529   0.61697   0.00000  Uiso   1.00
C131   C     0.49340   0.99875   0.61702   0.00000  Uiso   1.00
C132   C     0.48659   0.98482   0.66954   0.00000  Uiso   1.00
H37    H     0.57432   0.16055   0.11649   0.00000  Uiso   1.00
O21    O     0.59814   0.20703   0.06821   0.00000  Uiso   1.00
O22    O     0.59829   0.20710   0.94594   0.00000  Uiso   1.00
H38    H     0.57455   0.16067   0.89748   0.00000  Uiso   1.00
H39    H     0.52354   0.06010   0.34535   0.00000  Uiso   1.00
O23    O     0.51212   0.03700   0.45118   0.00000  Uiso   1.00
O24    O     0.48748   0.98697   0.45127   0.00000  Uiso   1.00
H40    H     0.47614   0.96385   0.34551   0.00000  Uiso   1.00
H41    H     0.42773   0.86337   0.11629   0.00000  Uiso   1.00
O25    O     0.40544   0.81696   0.06784   0.00000  Uiso   1.00
O26    O     0.40562   0.81703   0.94558   0.00000  Uiso   1.00
H42    H     0.42801   0.86349   0.89728   0.00000  Uiso   1.00
H43    H     0.52368   0.06015   0.66824   0.00000  Uiso   1.00
O27    O     0.51218   0.03702   0.56248   0.00000  Uiso   1.00
O28    O     0.48755   0.98700   0.56258   0.00000  Uiso   1.00
H44    H     0.47629   0.96390   0.66840   0.00000  Uiso   1.00
Ni2    Ni    0.50010   0.01201   0.00688   0.00000  Uiso   1.00
C133   C     0.52305   0.50307   0.23702   0.00000  Uiso   1.00
C134   C     0.51632   0.50988   0.29068   0.00000  Uiso   1.00
C135   C     0.50255   0.52367   0.29066   0.00000  Uiso   1.00
C136   C     0.49574   0.53041   0.23698   0.00000  Uiso   1.00
C137   C     0.50284   0.52324   0.18516   0.00000  Uiso   1.00
C138   C     0.51589   0.51018   0.18518   0.00000  Uiso   1.00
C139   C     0.51959   0.50642   0.12719   0.00000  Uiso   1.00
N17    N     0.50933   0.51667   0.09022   0.00000  Uiso   1.00
C140   C     0.49908   0.52694   0.12714   0.00000  Uiso   1.00
N18    N     0.48671   0.53917   0.11010   0.00000  Uiso   1.00
C141   C     0.48297   0.54286   0.05383   0.00000  Uiso   1.00
N19    N     0.49113   0.53485   0.00695   0.00000  Uiso   1.00
C142   C     0.48298   0.54286   0.96003   0.00000  Uiso   1.00
C143   C     0.47016   0.55540   0.97706   0.00000  Uiso   1.00
C144   C     0.47014   0.55540   0.03672   0.00000  Uiso   1.00
N20    N     0.50937   0.51668   0.92377   0.00000  Uiso   1.00
C145   C     0.49913   0.52695   0.88681   0.00000  Uiso   1.00
N21    N     0.48674   0.53917   0.90378   0.00000  Uiso   1.00
C146   C     0.50290   0.52326   0.82881   0.00000  Uiso   1.00
C147   C     0.51596   0.51021   0.82883   0.00000  Uiso   1.00
C148   C     0.51965   0.50644   0.88685   0.00000  Uiso   1.00
C149   C     0.45858   0.56652   0.06927   0.00000  Uiso   1.00
C150   C     0.44658   0.57799   0.03824   0.00000  Uiso   1.00
C151   C     0.44660   0.57799   0.97536   0.00000  Uiso   1.00
C152   C     0.45861   0.56651   0.94442   0.00000  Uiso   1.00
C153   C     0.52313   0.50311   0.77701   0.00000  Uiso   1.00
C154   C     0.51639   0.50991   0.72333   0.00000  Uiso   1.00
C155   C     0.50260   0.52369   0.72332   0.00000  Uiso   1.00
C156   C     0.49579   0.53042   0.77698   0.00000  Uiso   1.00
N22    N     0.52753   0.49845   0.00704   0.00000  Uiso   1.00
C157   C     0.53555   0.49031   0.96016   0.00000  Uiso   1.00
N23    N     0.53188   0.49407   0.90389   0.00000  Uiso   1.00
C158   C     0.54809   0.47749   0.97727   0.00000  Uiso   1.00
C159   C     0.54807   0.47748   0.03693   0.00000  Uiso   1.00
C160   C     0.53552   0.49030   0.05396   0.00000  Uiso   1.00
C161   C     0.55917   0.46592   0.06957   0.00000  Uiso   1.00
C162   C     0.57066   0.45392   0.03863   0.00000  Uiso   1.00
C163   C     0.57069   0.45393   0.97575   0.00000  Uiso   1.00
C164   C     0.55922   0.46594   0.94472   0.00000  Uiso   1.00
N24    N     0.53182   0.49404   0.11021   0.00000  Uiso   1.00
H45    H     0.53345   0.49266   0.23574   0.00000  Uiso   1.00
H46    H     0.48533   0.54081   0.23568   0.00000  Uiso   1.00
H47    H     0.45883   0.56621   0.11684   0.00000  Uiso   1.00
H48    H     0.45888   0.56621   0.89685   0.00000  Uiso   1.00
H49    H     0.53353   0.49270   0.77831   0.00000  Uiso   1.00
H50    H     0.48537   0.54081   0.77825   0.00000  Uiso   1.00
H51    H     0.55885   0.46617   0.11714   0.00000  Uiso   1.00
H52    H     0.55894   0.46621   0.89715   0.00000  Uiso   1.00
C165   C     0.58204   0.44188   0.06916   0.00000  Uiso   1.00
C166   C     0.59329   0.42995   0.03831   0.00000  Uiso   1.00
C167   C     0.59332   0.42997   0.97628   0.00000  Uiso   1.00
C168   C     0.58210   0.44191   0.94533   0.00000  Uiso   1.00
C169   C     0.52301   0.50328   0.34439   0.00000  Uiso   1.00
C170   C     0.51612   0.51025   0.39688   0.00000  Uiso   1.00
C171   C     0.50292   0.52345   0.39687   0.00000  Uiso   1.00
C172   C     0.49595   0.53036   0.34437   0.00000  Uiso   1.00
C173   C     0.43455   0.58939   0.06866   0.00000  Uiso   1.00
C174   C     0.42262   0.60062   0.03771   0.00000  Uiso   1.00
C175   C     0.42263   0.60062   0.97568   0.00000  Uiso   1.00
C176   C     0.43457   0.58938   0.94483   0.00000  Uiso   1.00
C177   C     0.52307   0.50331   0.66962   0.00000  Uiso   1.00
C178   C     0.51616   0.51027   0.61712   0.00000  Uiso   1.00
C179   C     0.50295   0.52347   0.61711   0.00000  Uiso   1.00
C180   C     0.49599   0.53037   0.66960   0.00000  Uiso   1.00
H53    H     0.58215   0.44169   0.11675   0.00000  Uiso   1.00
O29    O     0.60455   0.41787   0.06848   0.00000  Uiso   1.00
O30    O     0.60461   0.41791   0.94621   0.00000  Uiso   1.00
H54    H     0.58226   0.44175   0.89774   0.00000  Uiso   1.00
H55    H     0.53341   0.49287   0.34557   0.00000  Uiso   1.00
O31    O     0.52200   0.50445   0.45135   0.00000  Uiso   1.00
O32    O     0.49711   0.52933   0.45134   0.00000  Uiso   1.00
H56    H     0.48555   0.54077   0.34553   0.00000  Uiso   1.00
H57    H     0.43436   0.58953   0.11625   0.00000  Uiso   1.00
O33    O     0.41054   0.61190   0.06777   0.00000  Uiso   1.00
O34    O     0.41056   0.61188   0.94551   0.00000  Uiso   1.00
H58    H     0.43441   0.58951   0.89724   0.00000  Uiso   1.00
H59    H     0.53348   0.49291   0.66846   0.00000  Uiso   1.00
O35    O     0.52202   0.50446   0.56265   0.00000  Uiso   1.00
O36    O     0.49714   0.52934   0.56264   0.00000  Uiso   1.00
H60    H     0.48558   0.54077   0.66842   0.00000  Uiso   1.00
Ni3    Ni    0.50934   0.51667   0.00700   0.00000  Uiso   1.00
Cu1    Cu    0.00467   0.50716   0.50694   0.00000  Uiso   1.00
Cu2    Cu    0.49983   0.01200   0.50688   0.00000  Uiso   1.00
Cu3    Cu    0.50957   0.51690   0.50700   0.00000  Uiso   1.00
Zn1    Zn    0.22177   0.61700   0.00664   0.00000  Uiso   1.00
Zn2    Zn    0.60969   0.22910   0.00712   0.00000  Uiso   1.00
Zn3    Zn    0.39915   0.62241   0.00659   0.00000  Uiso   1.00
Zn4    Zn    0.78764   0.40226   0.00724   0.00000  Uiso   1.00
Zn5    Zn    0.39493   0.79496   0.00667   0.00000  Uiso   1.00
Zn6    Zn    0.61510   0.40649   0.00739   0.00000  Uiso   1.00
loop_
_geom_bond_atom_site_label_1
_geom_bond_atom_site_label_2
_geom_bond_distance
_geom_bond_site_symmetry_2
_ccdc_geom_bond_type
C1     C2      1.431   .     A
C1     C6      1.429   .     A
C1     C11     1.425   .     A
C2     C3      1.429   .     A
C2     C14     1.424   .     A
C3     C4      1.431   .     A
C3     C10     1.424   .     A
C4     C5      1.429   .     A
C4     C7      1.425   .     A
C5     C6      1.431   .     A
C5     C18     1.424   .     A
C6     C15     1.424   .     A
C7     C8      1.389   .     A
C7     H1      1.074   .     S
C8     C9      1.396   .     A
C8     O1      1.397   .     S
C9     C10     1.388   .     A
C9     O2      1.396   .     S
C10    H2      1.074   .     S
C11    C12     1.389   .     A
C11    H3      1.074   .     S
C12    C13     1.396   .     A
C12    O3      1.396   .     S
C13    C14     1.388   .     A
C13    O4      1.396   .     S
C14    H4      1.074   .     S
C15    C16     1.388   .     A
C15    H5      1.074   .     S
C16    C17     1.396   .     A
C16    O5      1.396   .     S
C17    C18     1.388   .     A
C17    O6      1.396   .     S
C18    H6      1.074   .     S
O1     Zn1     1.798   .     S
O2     Zn1     1.798   .     S
O3     Zn5     1.798   .     S
O4     Zn5     1.798   .     S
O5     Zn3     1.798   .     S
O6     Zn3     1.798   .     S
C19    C20     1.431   .     A
C19    C24     1.429   .     A
C19    C29     1.425   .     A
C20    C21     1.429   .     A
C20    C32     1.424   .     A
C21    C22     1.431   .     A
C21    C28     1.424   .     A
C22    C23     1.429   .     A
C22    C25     1.425   .     A
C23    C24     1.431   .     A
C23    C36     1.424   .     A
C24    C33     1.424   .     A
C25    C26     1.389   .     A
C25    H7      1.074   .     S
C26    C27     1.396   .     A
C26    O7      1.396   .     S
C27    C28     1.388   .     A
C27    O8      1.396   .     S
C28    H8      1.074   .     S
C29    C30     1.389   .     A
C29    H9      1.074   .     S
C30    C31     1.396   .     A
C30    O9      1.397   .     S
C31    C32     1.388   .     A
C31    O10     1.396   .     S
C32    H10     1.074   .     S
C33    C34     1.388   .     A
C33    H11     1.074   .     S
C34    C35     1.396   .     A
C34    O11     1.396   .     S
C35    C36     1.388   .     A
C35    O12     1.396   .     S
C36    H12     1.074   .     S
O7     Zn4     1.798   .     S
O8     Zn4     1.798   .     S
O9     Zn2     1.798   .     S
O10    Zn2     1.798   .     S
O11    Zn6     1.798   .     S
O12    Zn6     1.798   .     S
C37    C38     1.411   .     A
C37    C42     1.394   .     A
C37    H13     1.084   .     S
C38    C39     1.435   1_455 A
C38    C73     1.405   .     A
C39    C38     1.435   1_655 A
C39    C40     1.411   .     A
C39    C76     1.405   .     A
C40    C41     1.394   .     A
C40    H14     1.084   .     S
C41    C42     1.359   1_655 A
C41    C44     1.377   .     A
C42    C41     1.359   1_455 A
C42    C43     1.377   .     A
C43    N1      1.359   .     A
C43    N8      1.338   .     A
N1     C44     1.359   1_455 A
N1     Ni1     1.895   .     S
C44    N1      1.359   1_655 A
C44    N2      1.338   .     A
N2     C45     1.338   .     A
C45    N3      1.359   .     A
C45    C48     1.377   .     A
N3     C46     1.359   1_554 A
N3     Ni1     1.895   1_655 S
C46    N3      1.359   1_556 A
C46    C47     1.377   .     A
C46    N5      1.338   .     A
C47    C48     1.358   1_556 A
C47    C56     1.394   .     A
C48    C47     1.358   1_554 A
C48    C53     1.394   .     A
N4     C49     1.359   1_455 A
N4     C52     1.359   .     A
N4     Ni1     1.895   1_556 S
C49    N4      1.359   1_655 A
C49    N5      1.338   .     A
C49    C50     1.377   .     A
C50    C51     1.359   1_655 A
C50    C60     1.394   .     A
C51    C50     1.359   1_455 A
C51    C52     1.377   .     A
C51    C57     1.394   .     A
C52    N7      1.338   .     A
C53    C54     1.411   .     A
C53    H15     1.084   .     S
C54    C55     1.432   1_554 A
C54    C77     1.403   .     A
C55    C54     1.432   1_556 A
C55    C56     1.412   .     A
C55    C80     1.403   .     A
C56    H16     1.084   .     S
C57    C58     1.411   .     A
C57    H17     1.084   .     S
C58    C59     1.435   1_455 A
C58    C81     1.405   .     A
C59    C58     1.435   1_655 A
C59    C60     1.411   .     A
C59    C84     1.405   .     A
C60    H18     1.084   .     S
N6     C61     1.359   1_554 A
N6     C64     1.359   .     A
N6     Ni1     1.895   .     S
C61    N6      1.359   1_556 A
C61    N7      1.338   .     A
C61    C62     1.377   .     A
C62    C63     1.358   1_556 A
C62    C68     1.394   .     A
C63    C62     1.358   1_554 A
C63    C64     1.377   .     A
C63    C65     1.394   .     A
C64    N8      1.338   .     A
C65    C66     1.412   .     A
C65    H19     1.084   .     S
C66    C67     1.432   1_554 A
C66    C69     1.403   .     A
C67    C66     1.432   1_556 A
C67    C68     1.411   .     A
C67    C72     1.403   .     A
C68    H20     1.084   .     S
C69    C70     1.397   .     A
C69    H21     1.084   .     S
C70    C71     1.412   1_554 A
C70    O13     1.395   .     S
C71    C70     1.412   1_556 A
C71    C72     1.397   .     A
C71    O14     1.395   .     S
C72    H22     1.084   .     S
C73    C74     1.397   .     A
C73    H23     1.083   .     S
C74    C75     1.374   1_455 A
C74    O15     1.381   .     S
C75    C74     1.374   1_655 A
C75    C76     1.396   .     A
C75    O16     1.381   .     S
C76    H24     1.083   .     S
C77    C78     1.397   .     A
C77    H25     1.084   .     S
C78    C79     1.412   1_554 A
C78    O17     1.395   .     S
C79    C78     1.412   1_556 A
C79    C80     1.397   .     A
C79    O18     1.395   .     S
C80    H26     1.084   .     S
C81    C82     1.396   .     A
C81    H27     1.083   .     S
C82    C83     1.374   1_455 A
C82    O19     1.381   .     S
C83    C82     1.374   1_655 A
C83    C84     1.397   .     A
C83    O20     1.381   .     S
C84    H28     1.083   .     S
O13    Zn1     1.800   .     S
O14    Zn1     1.800   1_556 S
O15    Cu1     1.812   .     S
O16    Cu1     1.812   1_655 S
O17    Zn4     1.800   .     S
O18    Zn4     1.800   1_556 S
O19    Cu1     1.812   .     S
O20    Cu1     1.812   1_655 S
Ni1    N3      1.895   1_455 S
Ni1    N4      1.895   1_554 S
C85    C86     1.411   .     A
C85    C90     1.394   .     A
C85    H29     1.084   .     S
C86    C87     1.435   1_545 A
C86    C121    1.405   .     A
C87    C86     1.435   1_565 A
C87    C88     1.411   .     A
C87    C124    1.405   .     A
C88    C89     1.395   .     A
C88    H30     1.084   .     S
C89    C90     1.359   1_565 A
C89    C92     1.377   .     A
C90    C89     1.359   1_545 A
C90    C91     1.377   .     A
C91    N9      1.359   .     A
C91    N16     1.338   .     A
N9     C92     1.359   1_545 A
N9     Ni2     1.895   .     S
C92    N9      1.359   1_565 A
C92    N10     1.338   .     A
N10    C93     1.338   .     A
C93    N11     1.359   .     A
C93    C96     1.377   .     A
N11    C94     1.359   1_554 A
N11    Ni2     1.895   1_565 S
C94    N11     1.359   1_556 A
C94    C95     1.377   .     A
C94    N13     1.338   .     A
C95    C96     1.358   1_556 A
C95    C104    1.394   .     A
C96    C95     1.358   1_554 A
C96    C101    1.394   .     A
N12    C97     1.359   1_545 A
N12    C100    1.359   .     A
N12    Ni2     1.895   1_556 S
C97    N12     1.359   1_565 A
C97    N13     1.338   .     A
C97    C98     1.377   .     A
C98    C99     1.359   1_565 A
C98    C108    1.394   .     A
C99    C98     1.359   1_545 A
C99    C100    1.377   .     A
C99    C105    1.395   .     A
C100   N15     1.338   .     A
C101   C102    1.412   .     A
C101   H31     1.084   .     S
C102   C103    1.432   1_554 A
C102   C125    1.403   .     A
C103   C102    1.432   1_556 A
C103   C104    1.411   .     A
C103   C128    1.403   .     A
C104   H32     1.084   .     S
C105   C106    1.411   .     A
C105   H33     1.084   .     S
C106   C107    1.435   1_545 A
C106   C129    1.405   .     A
C107   C106    1.435   1_565 A
C107   C108    1.411   .     A
C107   C132    1.405   .     A
C108   H34     1.084   .     S
N14    C109    1.359   1_554 A
N14    C112    1.359   .     A
N14    Ni2     1.895   .     S
C109   N14     1.359   1_556 A
C109   N15     1.338   .     A
C109   C110    1.377   .     A
C110   C111    1.358   1_556 A
C110   C116    1.394   .     A
C111   C110    1.358   1_554 A
C111   C112    1.377   .     A
C111   C113    1.394   .     A
C112   N16     1.338   .     A
C113   C114    1.411   .     A
C113   H35     1.084   .     S
C114   C115    1.432   1_554 A
C114   C117    1.403   .     A
C115   C114    1.432   1_556 A
C115   C116    1.412   .     A
C115   C120    1.403   .     A
C116   H36     1.084   .     S
C117   C118    1.397   .     A
C117   H37     1.084   .     S
C118   C119    1.412   1_554 A
C118   O21     1.395   .     S
C119   C118    1.412   1_556 A
C119   C120    1.397   .     A
C119   O22     1.395   .     S
C120   H38     1.084   .     S
C121   C122    1.396   .     A
C121   H39     1.083   .     S
C122   C123    1.374   1_545 A
C122   O23     1.381   .     S
C123   C122    1.374   1_565 A
C123   C124    1.397   .     A
C123   O24     1.381   .     S
C124   H40     1.083   .     S
C125   C126    1.397   .     A
C125   H41     1.084   .     S
C126   C127    1.412   1_554 A
C126   O25     1.395   .     S
C127   C126    1.412   1_556 A
C127   C128    1.397   .     A
C127   O26     1.395   .     S
C128   H42     1.084   .     S
C129   C130    1.397   .     A
C129   H43     1.083   .     S
C130   C131    1.374   1_545 A
C130   O27     1.381   .     S
C131   C130    1.374   1_565 A
C131   C132    1.396   .     A
C131   O28     1.381   .     S
C132   H44     1.083   .     S
O21    Zn2     1.800   .     S
O22    Zn2     1.800   1_556 S
O23    Cu2     1.812   .     S
O24    Cu2     1.812   1_565 S
O25    Zn5     1.800   .     S
O26    Zn5     1.800   1_556 S
O27    Cu2     1.812   .     S
O28    Cu2     1.812   1_565 S
Ni2    N12     1.895   1_554 S
Ni2    N11     1.895   1_545 S
C133   C134    1.411   .     A
C133   C138    1.394   .     A
C133   H45     1.084   .     S
C134   C135    1.435   .     A
C134   C169    1.405   .     A
C135   C136    1.411   .     A
C135   C172    1.405   .     A
C136   C137    1.395   .     A
C136   H46     1.084   .     S
C137   C138    1.359   .     A
C137   C140    1.377   .     A
C138   C139    1.377   .     A
C139   N17     1.359   .     A
C139   N24     1.338   .     A
N17    C140    1.359   .     A
N17    Ni3     1.895   .     S
C140   N18     1.338   .     A
N18    C141    1.338   .     A
C141   N19     1.359   .     A
C141   C144    1.377   .     A
N19    C142    1.359   1_554 A
N19    Ni3     1.895   .     S
C142   N19     1.359   1_556 A
C142   C143    1.377   .     A
C142   N21     1.338   .     A
C143   C144    1.358   1_556 A
C143   C152    1.394   .     A
C144   C143    1.358   1_554 A
C144   C149    1.394   .     A
N20    C145    1.359   .     A
N20    C148    1.359   .     A
N20    Ni3     1.895   1_556 S
C145   N21     1.338   .     A
C145   C146    1.377   .     A
C146   C147    1.359   .     A
C146   C156    1.394   .     A
C147   C148    1.377   .     A
C147   C153    1.395   .     A
C148   N23     1.338   .     A
C149   C150    1.412   .     A
C149   H47     1.084   .     S
C150   C151    1.432   1_554 A
C150   C173    1.403   .     A
C151   C150    1.432   1_556 A
C151   C152    1.411   .     A
C151   C176    1.403   .     A
C152   H48     1.084   .     S
C153   C154    1.411   .     A
C153   H49     1.084   .     S
C154   C155    1.435   .     A
C154   C177    1.405   .     A
C155   C156    1.411   .     A
C155   C180    1.405   .     A
C156   H50     1.084   .     S
N22    C157    1.359   1_554 A
N22    C160    1.359   .     A
N22    Ni3     1.895   .     S
C157   N22     1.359   1_556 A
C157   N23     1.338   .     A
C157   C158    1.377   .     A
C158   C159    1.358   1_556 A
C158   C164    1.394   .     A
C159   C158    1.358   1_554 A
C159   C160    1.377   .     A
C159   C161    1.394   .     A
C160   N24     1.338   .     A
C161   C162    1.411   .     A
C161   H51     1.084   .     S
C162   C163    1.432   1_554 A
C162   C165    1.403   .     A
C163   C162    1.432   1_556 A
C163   C164    1.412   .     A
C163   C168    1.403   .     A
C164   H52     1.084   .     S
C165   C166    1.397   .     A
C165   H53     1.084   .     S
C166   C167    1.412   1_554 A
C166   O29     1.395   .     S
C167   C166    1.412   1_556 A
C167   C168    1.397   .     A
C167   O30     1.395   .     S
C168   H54     1.084   .     S
C169   C170    1.396   .     A
C169   H55     1.083   .     S
C170   C171    1.374   .     A
C170   O31     1.381   .     S
C171   C172    1.397   .     A
C171   O32     1.381   .     S
C172   H56     1.083   .     S
C173   C174    1.397   .     A
C173   H57     1.084   .     S
C174   C175    1.412   1_554 A
C174   O33     1.395   .     S
C175   C174    1.412   1_556 A
C175   C176    1.397   .     A
C175   O34     1.395   .     S
C176   H58     1.084   .     S
C177   C178    1.397   .     A
C177   H59     1.083   .     S
C178   C179    1.374   .     A
C178   O35     1.381   .     S
C179   C180    1.396   .     A
C179   O36     1.381   .     S
C180   H60     1.083   .     S
O29    Zn6     1.800   .     S
O30    Zn6     1.800   1_556 S
O31    Cu3     1.812   .     S
O32    Cu3     1.812   .     S
O33    Zn3     1.800   .     S
O34    Zn3     1.800   1_556 S
O35    Cu3     1.812   .     S
O36    Cu3     1.812   .     S
Ni3    N20     1.895   1_554 S
Cu1    O16     1.812   1_455 S
Cu1    O20     1.812   1_455 S
Cu2    O24     1.812   1_545 S
Cu2    O28     1.812   1_545 S
Zn1    O14     1.800   1_554 S
Zn2    O22     1.800   1_554 S
Zn3    O34     1.800   1_554 S
Zn4    O18     1.800   1_554 S
Zn5    O26     1.800   1_554 S
Zn6    O30     1.800   1_554 S
