data_tfz-TN_O-PcMN_O-Zntet
_audit_creation_date              2021-11-06
_audit_creation_method            'Materials Studio'
_symmetry_space_group_name_H-M    'P1'
_symmetry_Int_Tables_number       1
_symmetry_cell_setting            triclinic
loop_
_symmetry_equiv_pos_as_xyz
  x,y,z
_cell_length_a                    68.5293
_cell_length_b                    68.5297
_cell_length_c                    22.7691
_cell_angle_alpha                 89.9922
_cell_angle_beta                  90.2877
_cell_angle_gamma                 120.5171
loop_
_atom_site_label
_atom_site_type_symbol
_atom_site_fract_x
_atom_site_fract_y
_atom_site_fract_z
_atom_site_U_iso_or_equiv
_atom_site_adp_type
_atom_site_occupancy
C1     C     0.31454   0.67097   0.01181   0.00000  Uiso   1.00
C2     C     0.31392   0.64982   0.01185   0.00000  Uiso   1.00
C3     C     0.33461   0.64945   0.01142   0.00000  Uiso   1.00
C4     C     0.35586   0.67023   0.01270   0.00000  Uiso   1.00
C5     C     0.35644   0.69139   0.01339   0.00000  Uiso   1.00
C6     C     0.33580   0.69173   0.01060   0.00000  Uiso   1.00
C7     C     0.37608   0.66918   0.01201   0.00000  Uiso   1.00
C8     C     0.37569   0.64862   0.01137   0.00000  Uiso   1.00
C9     C     0.35484   0.62822   0.01023   0.00000  Uiso   1.00
C10    C     0.33474   0.62874   0.00976   0.00000  Uiso   1.00
C11    C     0.29367   0.67073   0.01425   0.00000  Uiso   1.00
C12    C     0.27280   0.65058   0.01400   0.00000  Uiso   1.00
C13    C     0.27215   0.62979   0.01315   0.00000  Uiso   1.00
C14    C     0.29238   0.62952   0.01272   0.00000  Uiso   1.00
C15    C     0.33707   0.71306   0.00642   0.00000  Uiso   1.00
C16    C     0.35768   0.73347   0.00873   0.00000  Uiso   1.00
C17    C     0.37793   0.73318   0.01402   0.00000  Uiso   1.00
C18    C     0.37722   0.71246   0.01653   0.00000  Uiso   1.00
C19    C     0.39878   0.75372   0.01613   0.00000  Uiso   1.00
C20    C     0.39933   0.77435   0.01331   0.00000  Uiso   1.00
C21    C     0.37895   0.77462   0.00878   0.00000  Uiso   1.00
C22    C     0.35826   0.75428   0.00620   0.00000  Uiso   1.00
C23    C     0.35433   0.60743   0.00933   0.00000  Uiso   1.00
C24    C     0.37451   0.60706   0.00974   0.00000  Uiso   1.00
C25    C     0.39547   0.62756   0.01081   0.00000  Uiso   1.00
C26    C     0.39602   0.64821   0.01153   0.00000  Uiso   1.00
H1     H     0.39266   0.68405   0.01110   0.00000  Uiso   1.00
H2     H     0.31951   0.61246   0.00763   0.00000  Uiso   1.00
H3     H     0.29285   0.68594   0.01767   0.00000  Uiso   1.00
H4     H     0.29047   0.61297   0.01354   0.00000  Uiso   1.00
H5     H     0.32235   0.71460   0.00009   0.00000  Uiso   1.00
H6     H     0.39336   0.71360   0.02168   0.00000  Uiso   1.00
H7     H     0.41459   0.75378   0.01977   0.00000  Uiso   1.00
O1     O     0.41993   0.79479   0.01495   0.00000  Uiso   1.00
O2     O     0.37964   0.79532   0.00697   0.00000  Uiso   1.00
H8     H     0.34274   0.75477   0.00255   0.00000  Uiso   1.00
H9     H     0.33835   0.59154   0.00842   0.00000  Uiso   1.00
O3     O     0.37414   0.58652   0.00916   0.00000  Uiso   1.00
O4     O     0.41554   0.62701   0.01122   0.00000  Uiso   1.00
H10    H     0.41226   0.66382   0.01236   0.00000  Uiso   1.00
C27    C     0.25114   0.60940   0.01324   0.00000  Uiso   1.00
C28    C     0.23099   0.60984   0.01383   0.00000  Uiso   1.00
C29    C     0.23167   0.63074   0.01453   0.00000  Uiso   1.00
C30    C     0.25248   0.65098   0.01483   0.00000  Uiso   1.00
H11    H     0.25036   0.59320   0.01274   0.00000  Uiso   1.00
O5     O     0.21010   0.58970   0.01362   0.00000  Uiso   1.00
O6     O     0.21144   0.63100   0.01478   0.00000  Uiso   1.00
H12    H     0.25272   0.66692   0.01541   0.00000  Uiso   1.00
C31    C     0.68794   0.33956   0.01114   0.00000  Uiso   1.00
C32    C     0.68759   0.36022   0.01103   0.00000  Uiso   1.00
C33    C     0.66642   0.35962   0.01161   0.00000  Uiso   1.00
C34    C     0.64565   0.33837   0.01014   0.00000  Uiso   1.00
C35    C     0.64604   0.31770   0.00958   0.00000  Uiso   1.00
C36    C     0.66716   0.31832   0.01227   0.00000  Uiso   1.00
C37    C     0.62492   0.33847   0.01043   0.00000  Uiso   1.00
C38    C     0.62438   0.35856   0.01130   0.00000  Uiso   1.00
C39    C     0.64477   0.37941   0.01297   0.00000  Uiso   1.00
C40    C     0.66534   0.37982   0.01369   0.00000  Uiso   1.00
C41    C     0.70929   0.34078   0.00892   0.00000  Uiso   1.00
C42    C     0.72969   0.36142   0.00905   0.00000  Uiso   1.00
C43    C     0.72939   0.38173   0.00955   0.00000  Uiso   1.00
C44    C     0.70867   0.38103   0.00982   0.00000  Uiso   1.00
C45    C     0.66685   0.29743   0.01621   0.00000  Uiso   1.00
C46    C     0.64672   0.27657   0.01403   0.00000  Uiso   1.00
C47    C     0.62598   0.27592   0.00912   0.00000  Uiso   1.00
C48    C     0.62576   0.29617   0.00679   0.00000  Uiso   1.00
C49    C     0.60560   0.25492   0.00720   0.00000  Uiso   1.00
C50    C     0.60600   0.23476   0.00982   0.00000  Uiso   1.00
C51    C     0.62686   0.23543   0.01400   0.00000  Uiso   1.00
C52    C     0.64708   0.25624   0.01638   0.00000  Uiso   1.00
C53    C     0.64434   0.39973   0.01410   0.00000  Uiso   1.00
C54    C     0.62369   0.39917   0.01340   0.00000  Uiso   1.00
C55    C     0.60320   0.37821   0.01188   0.00000  Uiso   1.00
C56    C     0.60358   0.35804   0.01090   0.00000  Uiso   1.00
H13    H     0.60864   0.32322   0.01069   0.00000  Uiso   1.00
H14    H     0.68016   0.39639   0.01650   0.00000  Uiso   1.00
H15    H     0.71086   0.32599   0.00585   0.00000  Uiso   1.00
H16    H     0.70983   0.39726   0.00844   0.00000  Uiso   1.00
H17    H     0.68198   0.29659   0.02217   0.00000  Uiso   1.00
H18    H     0.60928   0.29429   0.00219   0.00000  Uiso   1.00
H19    H     0.58944   0.25414   0.00384   0.00000  Uiso   1.00
O7     O     0.58588   0.21387   0.00831   0.00000  Uiso   1.00
O8     O     0.62711   0.21521   0.01568   0.00000  Uiso   1.00
H20    H     0.66298   0.25647   0.01976   0.00000  Uiso   1.00
H21    H     0.65995   0.41597   0.01536   0.00000  Uiso   1.00
O9     O     0.62314   0.41924   0.01412   0.00000  Uiso   1.00
O10    O     0.58265   0.37785   0.01131   0.00000  Uiso   1.00
H22    H     0.58768   0.34206   0.00971   0.00000  Uiso   1.00
C57    C     0.74992   0.40260   0.00930   0.00000  Uiso   1.00
C58    C     0.77056   0.40311   0.00891   0.00000  Uiso   1.00
C59    C     0.77084   0.38269   0.00852   0.00000  Uiso   1.00
C60    C     0.75050   0.36198   0.00838   0.00000  Uiso   1.00
H23    H     0.74996   0.41844   0.00956   0.00000  Uiso   1.00
O11    O     0.79099   0.42373   0.00902   0.00000  Uiso   1.00
O12    O     0.79154   0.38337   0.00838   0.00000  Uiso   1.00
H24    H     0.75100   0.34642   0.00803   0.00000  Uiso   1.00
C61    C     0.02517   0.52069   0.24182   0.00000  Uiso   1.00
C62    C     0.01322   0.51479   0.29531   0.00000  Uiso   1.00
C63    C     0.98892   0.50275   0.29495   0.00000  Uiso   1.00
C64    C     0.97698   0.49685   0.24110   0.00000  Uiso   1.00
C65    C     0.98956   0.50309   0.18946   0.00000  Uiso   1.00
C66    C     0.01258   0.51446   0.18980   0.00000  Uiso   1.00
C67    C     0.01916   0.51770   0.13188   0.00000  Uiso   1.00
N1     N     0.00106   0.50878   0.09469   0.00000  Uiso   1.00
C68    C     0.98298   0.49984   0.13137   0.00000  Uiso   1.00
N2     N     0.96128   0.48911   0.11406   0.00000  Uiso   1.00
C69    C     0.95472   0.48589   0.05771   0.00000  Uiso   1.00
N3     N     0.96896   0.49295   0.01101   0.00000  Uiso   1.00
C70    C     0.95470   0.48590   0.96391   0.00000  Uiso   1.00
C71    C     0.93233   0.47481   0.98068   0.00000  Uiso   1.00
C72    C     0.93235   0.47480   0.04034   0.00000  Uiso   1.00
N4     N     0.00104   0.50879   0.92824   0.00000  Uiso   1.00
C73    C     0.98295   0.49984   0.89104   0.00000  Uiso   1.00
N5     N     0.96125   0.48912   0.90774   0.00000  Uiso   1.00
C74    C     0.98952   0.50309   0.83312   0.00000  Uiso   1.00
C75    C     0.01254   0.51449   0.83346   0.00000  Uiso   1.00
C76    C     0.01912   0.51773   0.89156   0.00000  Uiso   1.00
C77    C     0.91236   0.46484   0.07267   0.00000  Uiso   1.00
C78    C     0.89165   0.45451   0.04141   0.00000  Uiso   1.00
C79    C     0.89163   0.45454   0.97853   0.00000  Uiso   1.00
C80    C     0.91233   0.46487   0.94782   0.00000  Uiso   1.00
C81    C     0.02512   0.52072   0.78183   0.00000  Uiso   1.00
C82    C     0.01318   0.51480   0.72798   0.00000  Uiso   1.00
C83    C     0.98888   0.50275   0.72761   0.00000  Uiso   1.00
C84    C     0.97693   0.49684   0.78111   0.00000  Uiso   1.00
N6     N     0.03314   0.52460   0.01191   0.00000  Uiso   1.00
C85    C     0.04738   0.53159   0.96522   0.00000  Uiso   1.00
N7     N     0.04082   0.52839   0.90887   0.00000  Uiso   1.00
C86    C     0.06975   0.54250   0.98259   0.00000  Uiso   1.00
C87    C     0.06976   0.54245   0.04225   0.00000  Uiso   1.00
C88    C     0.04740   0.53154   0.05901   0.00000  Uiso   1.00
C89    C     0.08975   0.55208   0.07511   0.00000  Uiso   1.00
C90    C     0.11045   0.56209   0.04439   0.00000  Uiso   1.00
C91    C     0.11043   0.56216   0.98152   0.00000  Uiso   1.00
C92    C     0.08973   0.55220   0.95026   0.00000  Uiso   1.00
N8     N     0.04085   0.52833   0.11518   0.00000  Uiso   1.00
H25    H     0.04351   0.52977   0.24081   0.00000  Uiso   1.00
H26    H     0.95863   0.48776   0.23953   0.00000  Uiso   1.00
H27    H     0.91287   0.46506   0.12025   0.00000  Uiso   1.00
H28    H     0.91282   0.46512   0.90025   0.00000  Uiso   1.00
H29    H     0.04347   0.52980   0.78339   0.00000  Uiso   1.00
H30    H     0.95859   0.48774   0.78212   0.00000  Uiso   1.00
H31    H     0.08927   0.55178   0.12267   0.00000  Uiso   1.00
H32    H     0.08922   0.55198   0.90268   0.00000  Uiso   1.00
C93    C     0.13110   0.57195   0.07514   0.00000  Uiso   1.00
C94    C     0.15152   0.58179   0.04450   0.00000  Uiso   1.00
C95    C     0.15151   0.58191   0.98248   0.00000  Uiso   1.00
C96    C     0.13107   0.57214   0.95131   0.00000  Uiso   1.00
C97    C     0.02494   0.52060   0.34921   0.00000  Uiso   1.00
C98    C     0.01270   0.51453   0.40152   0.00000  Uiso   1.00
C99    C     0.98942   0.50297   0.40116   0.00000  Uiso   1.00
C100   C     0.97720   0.49692   0.34847   0.00000  Uiso   1.00
C101   C     0.87101   0.44415   0.07161   0.00000  Uiso   1.00
C102   C     0.85056   0.43389   0.04044   0.00000  Uiso   1.00
C103   C     0.85054   0.43395   0.97842   0.00000  Uiso   1.00
C104   C     0.87097   0.44423   0.94778   0.00000  Uiso   1.00
C105   C     0.02490   0.52060   0.67445   0.00000  Uiso   1.00
C106   C     0.01268   0.51452   0.62176   0.00000  Uiso   1.00
C107   C     0.98940   0.50297   0.62140   0.00000  Uiso   1.00
C108   C     0.97716   0.49691   0.67372   0.00000  Uiso   1.00
H33    H     0.13139   0.57200   0.12273   0.00000  Uiso   1.00
O13    O     0.17210   0.59155   0.07488   0.00000  Uiso   1.00
O14    O     0.17208   0.59185   0.95263   0.00000  Uiso   1.00
H34    H     0.13134   0.57234   0.90373   0.00000  Uiso   1.00
H35    H     0.04328   0.52970   0.35066   0.00000  Uiso   1.00
O15    O     0.02300   0.51965   0.45615   0.00000  Uiso   1.00
O16    O     0.97912   0.49785   0.45547   0.00000  Uiso   1.00
H36    H     0.95885   0.48783   0.34936   0.00000  Uiso   1.00
H37    H     0.87074   0.44396   0.11920   0.00000  Uiso   1.00
O17    O     0.82998   0.42342   0.07028   0.00000  Uiso   1.00
O18    O     0.82994   0.42358   0.94804   0.00000  Uiso   1.00
H38    H     0.87068   0.44410   0.90019   0.00000  Uiso   1.00
H39    H     0.04324   0.52971   0.67356   0.00000  Uiso   1.00
O19    O     0.02298   0.51964   0.56745   0.00000  Uiso   1.00
O20    O     0.97910   0.49785   0.56677   0.00000  Uiso   1.00
H40    H     0.95882   0.48780   0.67227   0.00000  Uiso   1.00
Ni1    Ni    0.00105   0.50878   0.01146   0.00000  Uiso   1.00
C109   C     0.51652   0.02897   0.24171   0.00000  Uiso   1.00
C110   C     0.51063   0.01702   0.29530   0.00000  Uiso   1.00
C111   C     0.49858   0.99272   0.29512   0.00000  Uiso   1.00
C112   C     0.49263   0.98078   0.24136   0.00000  Uiso   1.00
C113   C     0.49887   0.99337   0.18963   0.00000  Uiso   1.00
C114   C     0.51027   0.01638   0.18978   0.00000  Uiso   1.00
C115   C     0.51358   0.02295   0.13180   0.00000  Uiso   1.00
N9     N     0.50471   0.00486   0.09477   0.00000  Uiso   1.00
C116   C     0.49568   0.98678   0.13160   0.00000  Uiso   1.00
N10    N     0.48492   0.96508   0.11448   0.00000  Uiso   1.00
C117   C     0.48183   0.95851   0.05820   0.00000  Uiso   1.00
N11    N     0.48915   0.97274   0.01138   0.00000  Uiso   1.00
C118   C     0.48236   0.95848   0.96442   0.00000  Uiso   1.00
C119   C     0.47121   0.93611   0.98141   0.00000  Uiso   1.00
C120   C     0.47081   0.93614   0.04105   0.00000  Uiso   1.00
N12    N     0.50528   0.00480   0.92833   0.00000  Uiso   1.00
C121   C     0.49643   0.98671   0.89129   0.00000  Uiso   1.00
N13    N     0.48573   0.96501   0.90819   0.00000  Uiso   1.00
C122   C     0.49974   0.99328   0.83331   0.00000  Uiso   1.00
C123   C     0.51112   0.01629   0.83346   0.00000  Uiso   1.00
C124   C     0.51429   0.02288   0.89150   0.00000  Uiso   1.00
C125   C     0.46056   0.91617   0.07358   0.00000  Uiso   1.00
C126   C     0.45042   0.89544   0.04256   0.00000  Uiso   1.00
C127   C     0.45105   0.89541   0.97972   0.00000  Uiso   1.00
C128   C     0.46157   0.91609   0.94878   0.00000  Uiso   1.00
C129   C     0.51732   0.02888   0.78174   0.00000  Uiso   1.00
C130   C     0.51136   0.01694   0.72798   0.00000  Uiso   1.00
C131   C     0.49932   0.99264   0.72779   0.00000  Uiso   1.00
C132   C     0.49347   0.98069   0.78139   0.00000  Uiso   1.00
N14    N     0.52081   0.03692   0.01172   0.00000  Uiso   1.00
C133   C     0.52802   0.05115   0.96489   0.00000  Uiso   1.00
N15    N     0.52495   0.04458   0.90861   0.00000  Uiso   1.00
C134   C     0.53887   0.07352   0.98204   0.00000  Uiso   1.00
C135   C     0.53851   0.07355   0.04169   0.00000  Uiso   1.00
C136   C     0.52754   0.05118   0.05867   0.00000  Uiso   1.00
C137   C     0.54789   0.09355   0.07431   0.00000  Uiso   1.00
C138   C     0.55803   0.11423   0.04336   0.00000  Uiso   1.00
C139   C     0.55860   0.11420   0.98052   0.00000  Uiso   1.00
C140   C     0.54880   0.09349   0.94950   0.00000  Uiso   1.00
N16    N     0.52421   0.04464   0.11491   0.00000  Uiso   1.00
H41    H     0.52564   0.04732   0.24056   0.00000  Uiso   1.00
H42    H     0.48357   0.96244   0.23994   0.00000  Uiso   1.00
H43    H     0.46039   0.91669   0.12113   0.00000  Uiso   1.00
H44    H     0.46219   0.91656   0.90123   0.00000  Uiso   1.00
H45    H     0.52638   0.04722   0.78316   0.00000  Uiso   1.00
H46    H     0.48437   0.96235   0.78254   0.00000  Uiso   1.00
H47    H     0.54726   0.09307   0.12186   0.00000  Uiso   1.00
H48    H     0.54890   0.09297   0.90195   0.00000  Uiso   1.00
C141   C     0.56752   0.13488   0.07383   0.00000  Uiso   1.00
C142   C     0.57758   0.15530   0.04296   0.00000  Uiso   1.00
C143   C     0.57842   0.15527   0.98100   0.00000  Uiso   1.00
C144   C     0.56891   0.13483   0.95009   0.00000  Uiso   1.00
C145   C     0.51653   0.02873   0.34912   0.00000  Uiso   1.00
C146   C     0.51055   0.01650   0.40152   0.00000  Uiso   1.00
C147   C     0.49898   0.99322   0.40133   0.00000  Uiso   1.00
C148   C     0.49283   0.98100   0.34873   0.00000  Uiso   1.00
C149   C     0.43964   0.87481   0.07296   0.00000  Uiso   1.00
C150   C     0.42967   0.85436   0.04204   0.00000  Uiso   1.00
C151   C     0.43058   0.85431   0.98009   0.00000  Uiso   1.00
C152   C     0.44115   0.87473   0.94924   0.00000  Uiso   1.00
C153   C     0.51710   0.02866   0.67437   0.00000  Uiso   1.00
C154   C     0.51096   0.01644   0.62177   0.00000  Uiso   1.00
C155   C     0.49941   0.99317   0.62158   0.00000  Uiso   1.00
C156   C     0.49343   0.98093   0.67398   0.00000  Uiso   1.00
H49    H     0.56712   0.13518   0.12138   0.00000  Uiso   1.00
O21    O     0.58689   0.17588   0.07303   0.00000  Uiso   1.00
O22    O     0.58881   0.17584   0.95095   0.00000  Uiso   1.00
H50    H     0.56957   0.13510   0.90254   0.00000  Uiso   1.00
H51    H     0.52565   0.04708   0.35044   0.00000  Uiso   1.00
O23    O     0.51574   0.02678   0.45609   0.00000  Uiso   1.00
O24    O     0.49394   0.98290   0.45571   0.00000  Uiso   1.00
H52    H     0.48374   0.96265   0.34975   0.00000  Uiso   1.00
H53    H     0.43891   0.87456   0.12050   0.00000  Uiso   1.00
O25    O     0.41869   0.83379   0.07205   0.00000  Uiso   1.00
O26    O     0.42077   0.83370   0.95000   0.00000  Uiso   1.00
H54    H     0.44158   0.87442   0.90170   0.00000  Uiso   1.00
H55    H     0.52619   0.04701   0.67335   0.00000  Uiso   1.00
O27    O     0.51596   0.02676   0.56739   0.00000  Uiso   1.00
O28    O     0.49417   0.98288   0.56701   0.00000  Uiso   1.00
H56    H     0.48431   0.96258   0.67266   0.00000  Uiso   1.00
Ni2    Ni    0.50499   0.00483   0.01155   0.00000  Uiso   1.00
C157   C     0.50882   0.48868   0.24158   0.00000  Uiso   1.00
C158   C     0.50292   0.49463   0.29517   0.00000  Uiso   1.00
C159   C     0.49087   0.50669   0.29497   0.00000  Uiso   1.00
C160   C     0.48493   0.51260   0.24121   0.00000  Uiso   1.00
C161   C     0.49116   0.50634   0.18949   0.00000  Uiso   1.00
C162   C     0.50257   0.49492   0.18966   0.00000  Uiso   1.00
C163   C     0.50588   0.49170   0.13169   0.00000  Uiso   1.00
N17    N     0.49695   0.50072   0.09463   0.00000  Uiso   1.00
C164   C     0.48795   0.50966   0.13144   0.00000  Uiso   1.00
N18    N     0.47723   0.52048   0.11428   0.00000  Uiso   1.00
C165   C     0.47405   0.52381   0.05798   0.00000  Uiso   1.00
N19    N     0.48116   0.51680   0.01118   0.00000  Uiso   1.00
C166   C     0.47422   0.52400   0.96419   0.00000  Uiso   1.00
C167   C     0.46318   0.53515   0.98112   0.00000  Uiso   1.00
C168   C     0.46306   0.53502   0.04077   0.00000  Uiso   1.00
N20    N     0.49721   0.50101   0.92818   0.00000  Uiso   1.00
C169   C     0.48827   0.51002   0.89112   0.00000  Uiso   1.00
N21    N     0.47753   0.52081   0.90797   0.00000  Uiso   1.00
C170   C     0.49158   0.50681   0.83315   0.00000  Uiso   1.00
C171   C     0.50301   0.49540   0.83332   0.00000  Uiso   1.00
C172   C     0.50624   0.49210   0.89137   0.00000  Uiso   1.00
C173   C     0.45320   0.54499   0.07324   0.00000  Uiso   1.00
C174   C     0.44316   0.55550   0.04214   0.00000  Uiso   1.00
C175   C     0.44333   0.55568   0.97927   0.00000  Uiso   1.00
C176   C     0.45349   0.54531   0.94840   0.00000  Uiso   1.00
C177   C     0.50926   0.48917   0.78160   0.00000  Uiso   1.00
C178   C     0.50332   0.49508   0.72783   0.00000  Uiso   1.00
C179   C     0.49126   0.50712   0.72764   0.00000  Uiso   1.00
C180   C     0.48534   0.51305   0.78122   0.00000  Uiso   1.00
N22    N     0.51302   0.48496   0.01162   0.00000  Uiso   1.00
C181   C     0.52024   0.47805   0.96483   0.00000  Uiso   1.00
N23    N     0.51705   0.48138   0.90853   0.00000  Uiso   1.00
C182   C     0.53139   0.46700   0.98204   0.00000  Uiso   1.00
C183   C     0.53123   0.46683   0.04170   0.00000  Uiso   1.00
C184   C     0.52002   0.47782   0.05862   0.00000  Uiso   1.00
C185   C     0.54117   0.45693   0.07441   0.00000  Uiso   1.00
C186   C     0.55168   0.44690   0.04356   0.00000  Uiso   1.00
C187   C     0.55191   0.44714   0.98069   0.00000  Uiso   1.00
C188   C     0.54156   0.45734   0.94958   0.00000  Uiso   1.00
N24    N     0.51668   0.48098   0.11483   0.00000  Uiso   1.00
H57    H     0.51793   0.47959   0.24044   0.00000  Uiso   1.00
H58    H     0.47584   0.52172   0.23978   0.00000  Uiso   1.00
H59    H     0.45336   0.54464   0.12082   0.00000  Uiso   1.00
H60    H     0.45387   0.54520   0.90084   0.00000  Uiso   1.00
H61    H     0.51837   0.48006   0.78303   0.00000  Uiso   1.00
H62    H     0.47622   0.52214   0.78237   0.00000  Uiso   1.00
H63    H     0.54079   0.45702   0.12198   0.00000  Uiso   1.00
H64    H     0.54148   0.45777   0.90200   0.00000  Uiso   1.00
C189   C     0.56198   0.43669   0.07415   0.00000  Uiso   1.00
C190   C     0.57245   0.42689   0.04338   0.00000  Uiso   1.00
C191   C     0.57274   0.42721   0.98137   0.00000  Uiso   1.00
C192   C     0.56250   0.43725   0.95034   0.00000  Uiso   1.00
C193   C     0.50877   0.48885   0.34897   0.00000  Uiso   1.00
C194   C     0.50274   0.49497   0.40138   0.00000  Uiso   1.00
C195   C     0.49120   0.50652   0.40119   0.00000  Uiso   1.00
C196   C     0.48509   0.51254   0.34859   0.00000  Uiso   1.00
C197   C     0.43303   0.56585   0.07249   0.00000  Uiso   1.00
C198   C     0.42322   0.57632   0.04148   0.00000  Uiso   1.00
C199   C     0.42342   0.57655   0.97946   0.00000  Uiso   1.00
C200   C     0.43340   0.56625   0.94868   0.00000  Uiso   1.00
C201   C     0.50911   0.48923   0.67422   0.00000  Uiso   1.00
C202   C     0.50300   0.49525   0.62162   0.00000  Uiso   1.00
C203   C     0.49144   0.50679   0.62143   0.00000  Uiso   1.00
C204   C     0.48541   0.51290   0.67383   0.00000  Uiso   1.00
H65    H     0.56193   0.43635   0.12174   0.00000  Uiso   1.00
O29    O     0.58274   0.41676   0.07362   0.00000  Uiso   1.00
O30    O     0.58339   0.41745   0.95139   0.00000  Uiso   1.00
H66    H     0.56285   0.43734   0.90277   0.00000  Uiso   1.00
H67    H     0.51788   0.47976   0.35029   0.00000  Uiso   1.00
O31    O     0.50791   0.48992   0.45594   0.00000  Uiso   1.00
O32    O     0.48615   0.51170   0.45557   0.00000  Uiso   1.00
H68    H     0.47599   0.52165   0.34961   0.00000  Uiso   1.00
H69    H     0.43276   0.56585   0.12008   0.00000  Uiso   1.00
O33    O     0.41317   0.58669   0.07147   0.00000  Uiso   1.00
O34    O     0.41361   0.58716   0.94924   0.00000  Uiso   1.00
H70    H     0.43342   0.56657   0.90109   0.00000  Uiso   1.00
H71    H     0.51821   0.48013   0.67320   0.00000  Uiso   1.00
O35    O     0.50806   0.49009   0.56724   0.00000  Uiso   1.00
O36    O     0.48628   0.51185   0.56687   0.00000  Uiso   1.00
H72    H     0.47630   0.52199   0.67252   0.00000  Uiso   1.00
Ni3    Ni    0.49709   0.50087   0.01140   0.00000  Uiso   1.00
Cu1    Cu    0.00105   0.50874   0.51146   0.00000  Uiso   1.00
Cu2    Cu    0.50495   0.00483   0.51155   0.00000  Uiso   1.00
Cu3    Cu    0.49710   0.50089   0.51140   0.00000  Uiso   1.00
Zn1    Zn    0.19143   0.60101   0.01400   0.00000  Uiso   1.00
Zn2    Zn    0.59715   0.19520   0.01200   0.00000  Uiso   1.00
Zn3    Zn    0.40411   0.59684   0.01026   0.00000  Uiso   1.00
Zn4    Zn    0.81061   0.41355   0.00891   0.00000  Uiso   1.00
Zn5    Zn    0.40979   0.81440   0.01098   0.00000  Uiso   1.00
Zn6    Zn    0.59297   0.40781   0.01263   0.00000  Uiso   1.00
loop_
_geom_bond_atom_site_label_1
_geom_bond_atom_site_label_2
_geom_bond_distance
_geom_bond_site_symmetry_2
_ccdc_geom_bond_type
C1     C2      1.428   .     A
C1     C6      1.429   .     A
C1     C11     1.423   .     A
C2     C3      1.431   .     A
C2     C14     1.425   .     A
C3     C4      1.429   .     A
C3     C10     1.424   .     A
C4     C5      1.430   .     A
C4     C7      1.424   .     A
C5     C6      1.427   .     A
C5     C18     1.424   .     A
C6     C15     1.423   .     A
C7     C8      1.396   .     A
C7     H1      1.074   .     S
C8     C9      1.403   .     A
C8     C26     1.408   .     A
C9     C10     1.396   .     A
C9     C23     1.408   .     A
C10    H2      1.074   .     S
C11    C12     1.395   .     A
C11    H3      1.075   .     S
C12    C13     1.403   .     A
C12    C30     1.407   .     A
C13    C14     1.396   .     A
C13    C27     1.408   .     A
C14    H4      1.074   .     S
C15    C16     1.395   .     A
C15    H5      1.075   .     S
C16    C17     1.403   .     A
C16    C22     1.407   .     A
C17    C18     1.397   .     A
C17    C19     1.408   .     A
C18    H6      1.074   .     S
C19    C20     1.397   .     A
C19    H7      1.084   .     S
C20    C21     1.410   .     A
C20    O1      1.396   .     S
C21    C22     1.396   .     A
C21    O2      1.395   .     S
C22    H8      1.084   .     S
C23    C24     1.396   .     A
C23    H9      1.084   .     S
C24    C25     1.410   .     A
C24    O3      1.395   .     S
C25    C26     1.396   .     A
C25    O4      1.395   .     S
C26    H10     1.084   .     S
O1     Zn5     1.802   .     S
O2     Zn5     1.800   .     S
O3     Zn3     1.801   .     S
O4     Zn3     1.801   .     S
C27    C28     1.396   .     A
C27    H11     1.084   .     S
C28    C29     1.410   .     A
C28    O5      1.395   .     S
C29    C30     1.396   .     A
C29    O6      1.395   .     S
C30    H12     1.084   .     S
O5     Zn1     1.801   .     S
O6     Zn1     1.800   .     S
C31    C32     1.428   .     A
C31    C36     1.429   .     A
C31    C41     1.423   .     A
C32    C33     1.431   .     A
C32    C44     1.425   .     A
C33    C34     1.429   .     A
C33    C40     1.424   .     A
C34    C35     1.431   .     A
C34    C37     1.424   .     A
C35    C36     1.428   .     A
C35    C48     1.424   .     A
C36    C45     1.423   .     A
C37    C38     1.396   .     A
C37    H13     1.074   .     S
C38    C39     1.403   .     A
C38    C56     1.408   .     A
C39    C40     1.396   .     A
C39    C53     1.407   .     A
C40    H14     1.074   .     S
C41    C42     1.395   .     A
C41    H15     1.075   .     S
C42    C43     1.403   .     A
C42    C60     1.407   .     A
C43    C44     1.396   .     A
C43    C57     1.408   .     A
C44    H16     1.074   .     S
C45    C46     1.395   .     A
C45    H17     1.075   .     S
C46    C47     1.403   .     A
C46    C52     1.407   .     A
C47    C48     1.396   .     A
C47    C49     1.408   .     A
C48    H18     1.074   .     S
C49    C50     1.397   .     A
C49    H19     1.084   .     S
C50    C51     1.410   .     A
C50    O7      1.396   .     S
C51    C52     1.396   .     A
C51    O8      1.395   .     S
C52    H20     1.084   .     S
C53    C54     1.396   .     A
C53    H21     1.084   .     S
C54    C55     1.410   .     A
C54    O9      1.395   .     S
C55    C56     1.396   .     A
C55    O10     1.395   .     S
C56    H22     1.084   .     S
O7     Zn2     1.802   .     S
O8     Zn2     1.800   .     S
O9     Zn6     1.801   .     S
O10    Zn6     1.801   .     S
C57    C58     1.397   .     A
C57    H23     1.084   .     S
C58    C59     1.410   .     A
C58    O11     1.396   .     S
C59    C60     1.396   .     A
C59    O12     1.395   .     S
C60    H24     1.084   .     S
O11    Zn4     1.802   .     S
O12    Zn4     1.800   .     S
C61    C62     1.411   .     A
C61    C66     1.395   .     A
C61    H25     1.084   .     S
C62    C63     1.435   1_455 A
C62    C97     1.405   .     A
C63    C62     1.435   1_655 A
C63    C64     1.411   .     A
C63    C100    1.405   .     A
C64    C65     1.394   .     A
C64    H26     1.084   .     S
C65    C66     1.359   1_655 A
C65    C68     1.377   .     A
C66    C65     1.359   1_455 A
C66    C67     1.377   .     A
C67    N1      1.359   .     A
C67    N8      1.338   .     A
N1     C68     1.359   1_455 A
N1     Ni1     1.895   .     S
C68    N1      1.359   1_655 A
C68    N2      1.338   .     A
N2     C69     1.338   .     A
C69    N3      1.359   .     A
C69    C72     1.377   .     A
N3     C70     1.359   1_554 A
N3     Ni1     1.895   1_655 S
C70    N3      1.359   1_556 A
C70    C71     1.377   .     A
C70    N5      1.338   .     A
C71    C72     1.358   1_556 A
C71    C80     1.394   .     A
C72    C71     1.358   1_554 A
C72    C77     1.394   .     A
N4     C73     1.359   1_455 A
N4     C76     1.359   .     A
N4     Ni1     1.895   1_556 S
C73    N4      1.359   1_655 A
C73    N5      1.338   .     A
C73    C74     1.377   .     A
C74    C75     1.359   1_655 A
C74    C84     1.395   .     A
C75    C74     1.359   1_455 A
C75    C76     1.377   .     A
C75    C81     1.394   .     A
C76    N7      1.338   .     A
C77    C78     1.411   .     A
C77    H27     1.084   .     S
C78    C79     1.432   1_554 A
C78    C101    1.403   .     A
C79    C78     1.432   1_556 A
C79    C80     1.412   .     A
C79    C104    1.403   .     A
C80    H28     1.084   .     S
C81    C82     1.411   .     A
C81    H29     1.084   .     S
C82    C83     1.435   1_455 A
C82    C105    1.405   .     A
C83    C82     1.435   1_655 A
C83    C84     1.411   .     A
C83    C108    1.405   .     A
C84    H30     1.084   .     S
N6     C85     1.359   1_554 A
N6     C88     1.359   .     A
N6     Ni1     1.895   .     S
C85    N6      1.359   1_556 A
C85    N7      1.338   .     A
C85    C86     1.377   .     A
C86    C87     1.358   1_556 A
C86    C92     1.394   .     A
C87    C86     1.358   1_554 A
C87    C88     1.377   .     A
C87    C89     1.394   .     A
C88    N8      1.338   .     A
C89    C90     1.412   .     A
C89    H31     1.084   .     S
C90    C91     1.432   1_554 A
C90    C93     1.403   .     A
C91    C90     1.432   1_556 A
C91    C92     1.411   .     A
C91    C96     1.403   .     A
C92    H32     1.084   .     S
C93    C94     1.397   .     A
C93    H33     1.084   .     S
C94    C95     1.412   1_554 A
C94    O13     1.395   .     S
C95    C94     1.412   1_556 A
C95    C96     1.397   .     A
C95    O14     1.395   .     S
C96    H34     1.084   .     S
C97    C98     1.397   .     A
C97    H35     1.083   .     S
C98    C99     1.374   1_455 A
C98    O15     1.381   .     S
C99    C98     1.374   1_655 A
C99    C100    1.396   .     A
C99    O16     1.381   .     S
C100   H36     1.083   .     S
C101   C102    1.397   .     A
C101   H37     1.084   .     S
C102   C103    1.412   1_554 A
C102   O17     1.395   .     S
C103   C102    1.412   1_556 A
C103   C104    1.397   .     A
C103   O18     1.395   .     S
C104   H38     1.084   .     S
C105   C106    1.396   .     A
C105   H39     1.083   .     S
C106   C107    1.374   1_455 A
C106   O19     1.381   .     S
C107   C106    1.374   1_655 A
C107   C108    1.397   .     A
C107   O20     1.381   .     S
C108   H40     1.083   .     S
O13    Zn1     1.800   .     S
O14    Zn1     1.800   1_556 S
O15    Cu1     1.812   .     S
O16    Cu1     1.812   1_655 S
O17    Zn4     1.800   .     S
O18    Zn4     1.800   1_556 S
O19    Cu1     1.812   .     S
O20    Cu1     1.812   1_655 S
Ni1    N3      1.895   1_455 S
Ni1    N4      1.895   1_554 S
C109   C110    1.411   .     A
C109   C114    1.395   .     A
C109   H41     1.084   .     S
C110   C111    1.435   1_545 A
C110   C145    1.405   .     A
C111   C110    1.435   1_565 A
C111   C112    1.411   .     A
C111   C148    1.405   .     A
C112   C113    1.394   .     A
C112   H42     1.084   .     S
C113   C114    1.359   1_565 A
C113   C116    1.377   .     A
C114   C113    1.359   1_545 A
C114   C115    1.377   .     A
C115   N9      1.359   .     A
C115   N16     1.338   .     A
N9     C116    1.359   1_545 A
N9     Ni2     1.895   .     S
C116   N9      1.359   1_565 A
C116   N10     1.338   .     A
N10    C117    1.338   .     A
C117   N11     1.359   .     A
C117   C120    1.376   .     A
N11    C118    1.360   1_554 A
N11    Ni2     1.895   1_565 S
C118   N11     1.360   1_556 A
C118   C119    1.377   .     A
C118   N13     1.338   .     A
C119   C120    1.358   1_556 A
C119   C128    1.394   .     A
C120   C119    1.358   1_554 A
C120   C125    1.394   .     A
N12    C121    1.360   1_545 A
N12    C124    1.359   .     A
N12    Ni2     1.895   1_556 S
C121   N12     1.360   1_565 A
C121   N13     1.338   .     A
C121   C122    1.377   .     A
C122   C123    1.359   1_565 A
C122   C132    1.395   .     A
C123   C122    1.359   1_545 A
C123   C124    1.376   .     A
C123   C129    1.394   .     A
C124   N15     1.338   .     A
C125   C126    1.411   .     A
C125   H43     1.084   .     S
C126   C127    1.432   1_554 A
C126   C149    1.403   .     A
C127   C126    1.432   1_556 A
C127   C128    1.412   .     A
C127   C152    1.403   .     A
C128   H44     1.084   .     S
C129   C130    1.411   .     A
C129   H45     1.084   .     S
C130   C131    1.435   1_545 A
C130   C153    1.405   .     A
C131   C130    1.435   1_565 A
C131   C132    1.411   .     A
C131   C156    1.405   .     A
C132   H46     1.084   .     S
N14    C133    1.359   1_554 A
N14    C136    1.359   .     A
N14    Ni2     1.895   .     S
C133   N14     1.359   1_556 A
C133   N15     1.338   .     A
C133   C134    1.377   .     A
C134   C135    1.358   1_556 A
C134   C140    1.394   .     A
C135   C134    1.358   1_554 A
C135   C136    1.377   .     A
C135   C137    1.394   .     A
C136   N16     1.338   .     A
C137   C138    1.412   .     A
C137   H47     1.084   .     S
C138   C139    1.432   1_554 A
C138   C141    1.403   .     A
C139   C138    1.432   1_556 A
C139   C140    1.411   .     A
C139   C144    1.403   .     A
C140   H48     1.084   .     S
C141   C142    1.397   .     A
C141   H49     1.084   .     S
C142   C143    1.412   1_554 A
C142   O21     1.395   .     S
C143   C142    1.412   1_556 A
C143   C144    1.397   .     A
C143   O22     1.395   .     S
C144   H50     1.084   .     S
C145   C146    1.397   .     A
C145   H51     1.083   .     S
C146   C147    1.374   1_545 A
C146   O23     1.381   .     S
C147   C146    1.374   1_565 A
C147   C148    1.396   .     A
C147   O24     1.381   .     S
C148   H52     1.083   .     S
C149   C150    1.397   .     A
C149   H53     1.084   .     S
C150   C151    1.412   1_554 A
C150   O25     1.395   .     S
C151   C150    1.412   1_556 A
C151   C152    1.397   .     A
C151   O26     1.395   .     S
C152   H54     1.084   .     S
C153   C154    1.396   .     A
C153   H55     1.083   .     S
C154   C155    1.374   1_545 A
C154   O27     1.381   .     S
C155   C154    1.374   1_565 A
C155   C156    1.397   .     A
C155   O28     1.381   .     S
C156   H56     1.083   .     S
O21    Zn2     1.801   .     S
O22    Zn2     1.800   1_556 S
O23    Cu2     1.812   .     S
O24    Cu2     1.812   1_565 S
O25    Zn5     1.800   .     S
O26    Zn5     1.801   1_556 S
O27    Cu2     1.812   .     S
O28    Cu2     1.812   1_565 S
Ni2    N11     1.895   1_545 S
Ni2    N12     1.895   1_554 S
C157   C158    1.411   .     A
C157   C162    1.395   .     A
C157   H57     1.084   .     S
C158   C159    1.435   .     A
C158   C193    1.405   .     A
C159   C160    1.411   .     A
C159   C196    1.405   .     A
C160   C161    1.394   .     A
C160   H58     1.084   .     S
C161   C162    1.359   .     A
C161   C164    1.377   .     A
C162   C163    1.377   .     A
C163   N17     1.360   .     A
C163   N24     1.338   .     A
N17    C164    1.359   .     A
N17    Ni3     1.895   .     S
C164   N18     1.338   .     A
N18    C165    1.338   .     A
C165   N19     1.359   .     A
C165   C168    1.377   .     A
N19    C166    1.359   1_554 A
N19    Ni3     1.895   .     S
C166   N19     1.359   1_556 A
C166   C167    1.377   .     A
C166   N21     1.338   .     A
C167   C168    1.358   1_556 A
C167   C176    1.394   .     A
C168   C167    1.358   1_554 A
C168   C173    1.394   .     A
N20    C169    1.359   .     A
N20    C172    1.359   .     A
N20    Ni3     1.895   1_556 S
C169   N21     1.338   .     A
C169   C170    1.377   .     A
C170   C171    1.359   .     A
C170   C180    1.395   .     A
C171   C172    1.377   .     A
C171   C177    1.394   .     A
C172   N23     1.338   .     A
C173   C174    1.411   .     A
C173   H59     1.084   .     S
C174   C175    1.432   1_554 A
C174   C197    1.403   .     A
C175   C174    1.432   1_556 A
C175   C176    1.412   .     A
C175   C200    1.403   .     A
C176   H60     1.084   .     S
C177   C178    1.411   .     A
C177   H61     1.084   .     S
C178   C179    1.435   .     A
C178   C201    1.405   .     A
C179   C180    1.411   .     A
C179   C204    1.405   .     A
C180   H62     1.084   .     S
N22    C181    1.359   1_554 A
N22    C184    1.359   .     A
N22    Ni3     1.895   .     S
C181   N22     1.359   1_556 A
C181   N23     1.338   .     A
C181   C182    1.377   .     A
C182   C183    1.358   1_556 A
C182   C188    1.394   .     A
C183   C182    1.358   1_554 A
C183   C184    1.377   .     A
C183   C185    1.394   .     A
C184   N24     1.338   .     A
C185   C186    1.412   .     A
C185   H63     1.084   .     S
C186   C187    1.432   1_554 A
C186   C189    1.403   .     A
C187   C186    1.432   1_556 A
C187   C188    1.411   .     A
C187   C192    1.403   .     A
C188   H64     1.084   .     S
C189   C190    1.397   .     A
C189   H65     1.084   .     S
C190   C191    1.412   1_554 A
C190   O29     1.395   .     S
C191   C190    1.412   1_556 A
C191   C192    1.397   .     A
C191   O30     1.395   .     S
C192   H66     1.084   .     S
C193   C194    1.397   .     A
C193   H67     1.083   .     S
C194   C195    1.374   .     A
C194   O31     1.381   .     S
C195   C196    1.396   .     A
C195   O32     1.381   .     S
C196   H68     1.083   .     S
C197   C198    1.397   .     A
C197   H69     1.084   .     S
C198   C199    1.412   1_554 A
C198   O33     1.395   .     S
C199   C198    1.412   1_556 A
C199   C200    1.397   .     A
C199   O34     1.395   .     S
C200   H70     1.084   .     S
C201   C202    1.396   .     A
C201   H71     1.083   .     S
C202   C203    1.374   .     A
C202   O35     1.381   .     S
C203   C204    1.397   .     A
C203   O36     1.381   .     S
C204   H72     1.083   .     S
O29    Zn6     1.800   .     S
O30    Zn6     1.800   1_556 S
O31    Cu3     1.812   .     S
O32    Cu3     1.812   .     S
O33    Zn3     1.800   .     S
O34    Zn3     1.800   1_556 S
O35    Cu3     1.812   .     S
O36    Cu3     1.812   .     S
Ni3    N20     1.895   1_554 S
Cu1    O16     1.812   1_455 S
Cu1    O20     1.812   1_455 S
Cu2    O24     1.812   1_545 S
Cu2    O28     1.812   1_545 S
Zn1    O14     1.800   1_554 S
Zn2    O22     1.800   1_554 S
Zn3    O34     1.800   1_554 S
Zn4    O18     1.800   1_554 S
Zn5    O26     1.801   1_554 S
Zn6    O30     1.800   1_554 S
