data_tfz-TN_O-PcM_O-Zntet
_audit_creation_date              2021-11-06
_audit_creation_method            'Materials Studio'
_symmetry_space_group_name_H-M    'P1'
_symmetry_Int_Tables_number       1
_symmetry_cell_setting            triclinic
loop_
_symmetry_equiv_pos_as_xyz
  x,y,z
_cell_length_a                    59.9196
_cell_length_b                    59.9163
_cell_length_c                    17.9082
_cell_angle_alpha                 89.9909
_cell_angle_beta                  89.9461
_cell_angle_gamma                 120.0228
loop_
_atom_site_label
_atom_site_type_symbol
_atom_site_fract_x
_atom_site_fract_y
_atom_site_fract_z
_atom_site_U_iso_or_equiv
_atom_site_adp_type
_atom_site_occupancy
C1     C     0.31041   0.66956   0.00120   0.00000  Uiso   1.00
C2     C     0.31090   0.64600  -0.00044   0.00000  Uiso   1.00
C3     C     0.33498   0.64650   0.00130   0.00000  Uiso   1.00
C4     C     0.35854   0.67056  -0.00046   0.00000  Uiso   1.00
C5     C     0.35805   0.69415   0.00127   0.00000  Uiso   1.00
C6     C     0.33400   0.69365  -0.00044   0.00000  Uiso   1.00
C7     C     0.38210   0.67028  -0.00518   0.00000  Uiso   1.00
C8     C     0.38280   0.64735  -0.00272   0.00000  Uiso   1.00
C9     C     0.35968   0.62374   0.00346   0.00000  Uiso   1.00
C10    C     0.33625   0.62346   0.00598   0.00000  Uiso   1.00
C11    C     0.28609   0.66828   0.00568   0.00000  Uiso   1.00
C12    C     0.26293   0.64485   0.00317   0.00000  Uiso   1.00
C13    C     0.26341   0.62174  -0.00278   0.00000  Uiso   1.00
C14    C     0.28704   0.62244  -0.00508   0.00000  Uiso   1.00
C15    C     0.33431   0.71751  -0.00498   0.00000  Uiso   1.00
C16    C     0.35725   0.74115  -0.00246   0.00000  Uiso   1.00
C17    C     0.38084   0.74163   0.00356   0.00000  Uiso   1.00
C18    C     0.38109   0.71846   0.00595   0.00000  Uiso   1.00
C19    C     0.40402   0.76538   0.00641   0.00000  Uiso   1.00
C20    C     0.40361   0.78845   0.00333   0.00000  Uiso   1.00
C21    C     0.37990   0.78798  -0.00193   0.00000  Uiso   1.00
C22    C     0.35687   0.76443  -0.00515   0.00000  Uiso   1.00
C23    C     0.36026   0.60057   0.00628   0.00000  Uiso   1.00
C24    C     0.38376   0.60101   0.00299   0.00000  Uiso   1.00
C25    C     0.40700   0.62474  -0.00248   0.00000  Uiso   1.00
C26    C     0.40647   0.64775  -0.00564   0.00000  Uiso   1.00
H1     H     0.40041   0.68757  -0.01254   0.00000  Uiso   1.00
H2     H     0.31938   0.60482   0.01332   0.00000  Uiso   1.00
H3     H     0.28431   0.68515   0.01283   0.00000  Uiso   1.00
H4     H     0.28602   0.60412  -0.01225   0.00000  Uiso   1.00
H5     H     0.31703   0.71855  -0.01220   0.00000  Uiso   1.00
H6     H     0.39973   0.72023   0.01322   0.00000  Uiso   1.00
H7     H     0.42239   0.76605   0.01062   0.00000  Uiso   1.00
O1     O     0.42653   0.81208   0.00532   0.00000  Uiso   1.00
O2     O     0.37968   0.81115  -0.00382   0.00000  Uiso   1.00
H8     H     0.33880   0.76437  -0.00936   0.00000  Uiso   1.00
H9     H     0.34257   0.58218   0.01063   0.00000  Uiso   1.00
O3     O     0.38449   0.57811   0.00497   0.00000  Uiso   1.00
O4     O     0.43040   0.62498  -0.00459   0.00000  Uiso   1.00
H10    H     0.42448   0.66584  -0.00999   0.00000  Uiso   1.00
C27    C     0.24013   0.59807  -0.00565   0.00000  Uiso   1.00
C28    C     0.21659   0.59753  -0.00266   0.00000  Uiso   1.00
C29    C     0.21611   0.62077   0.00257   0.00000  Uiso   1.00
C30    C     0.23917   0.64427   0.00581   0.00000  Uiso   1.00
H11    H     0.24020   0.58005  -0.00981   0.00000  Uiso   1.00
O5     O     0.19342   0.57413  -0.00472   0.00000  Uiso   1.00
O6     O     0.19247   0.62004   0.00440   0.00000  Uiso   1.00
H12    H     0.23850   0.66197   0.00997   0.00000  Uiso   1.00
C31    C     0.69135   0.33635   0.00121   0.00000  Uiso   1.00
C32    C     0.69185   0.36040  -0.00048   0.00000  Uiso   1.00
C33    C     0.66825   0.36089   0.00112   0.00000  Uiso   1.00
C34    C     0.64420   0.33731  -0.00056   0.00000  Uiso   1.00
C35    C     0.64370   0.31323   0.00110   0.00000  Uiso   1.00
C36    C     0.66727   0.31275  -0.00063   0.00000  Uiso   1.00
C37    C     0.62116   0.33858  -0.00518   0.00000  Uiso   1.00
C38    C     0.62142   0.36200  -0.00286   0.00000  Uiso   1.00
C39    C     0.64502   0.38513   0.00308   0.00000  Uiso   1.00
C40    C     0.66796   0.38444   0.00560   0.00000  Uiso   1.00
C41    C     0.71519   0.33664   0.00597   0.00000  Uiso   1.00
C42    C     0.73883   0.35958   0.00359   0.00000  Uiso   1.00
C43    C     0.73933   0.38318  -0.00245   0.00000  Uiso   1.00
C44    C     0.71617   0.38345  -0.00496   0.00000  Uiso   1.00
C45    C     0.66600   0.28845  -0.00544   0.00000  Uiso   1.00
C46    C     0.64258   0.26528  -0.00303   0.00000  Uiso   1.00
C47    C     0.61945   0.26574   0.00311   0.00000  Uiso   1.00
C48    C     0.62014   0.28937   0.00567   0.00000  Uiso   1.00
C49    C     0.59579   0.24245   0.00590   0.00000  Uiso   1.00
C50    C     0.59527   0.21891   0.00264   0.00000  Uiso   1.00
C51    C     0.61852   0.21845  -0.00278   0.00000  Uiso   1.00
C52    C     0.64201   0.24153  -0.00595   0.00000  Uiso   1.00
C53    C     0.64542   0.40880   0.00569   0.00000  Uiso   1.00
C54    C     0.62240   0.40932   0.00246   0.00000  Uiso   1.00
C55    C     0.59868   0.38608  -0.00273   0.00000  Uiso   1.00
C56    C     0.59825   0.36257  -0.00571   0.00000  Uiso   1.00
H13    H     0.60252   0.32170  -0.01234   0.00000  Uiso   1.00
H14    H     0.68524   0.40277   0.01274   0.00000  Uiso   1.00
H15    H     0.71620   0.31935   0.01330   0.00000  Uiso   1.00
H16    H     0.71796   0.40210  -0.01211   0.00000  Uiso   1.00
H17    H     0.68288   0.28671  -0.01283   0.00000  Uiso   1.00
H18    H     0.60182   0.28832   0.01294   0.00000  Uiso   1.00
H19    H     0.57777   0.24249   0.01022   0.00000  Uiso   1.00
O7     O     0.57188   0.19573   0.00468   0.00000  Uiso   1.00
O8     O     0.61781   0.19483  -0.00481   0.00000  Uiso   1.00
H20    H     0.65971   0.24087  -0.01026   0.00000  Uiso   1.00
H21    H     0.66350   0.42682   0.00985   0.00000  Uiso   1.00
O9     O     0.62264   0.43272   0.00426   0.00000  Uiso   1.00
O10    O     0.57577   0.38679  -0.00474   0.00000  Uiso   1.00
H22    H     0.57987   0.34487  -0.00986   0.00000  Uiso   1.00
C57    C     0.76309   0.40637  -0.00518   0.00000  Uiso   1.00
C58    C     0.78615   0.40593  -0.00199   0.00000  Uiso   1.00
C59    C     0.78566   0.38221   0.00334   0.00000  Uiso   1.00
C60    C     0.76210   0.35919   0.00646   0.00000  Uiso   1.00
H23    H     0.76378   0.42475  -0.00942   0.00000  Uiso   1.00
O11    O     0.80979   0.42885  -0.00396   0.00000  Uiso   1.00
O12    O     0.80882   0.38198   0.00533   0.00000  Uiso   1.00
H24    H     0.76203   0.34111   0.01070   0.00000  Uiso   1.00
C61    C     0.90016   0.45072   0.07977   0.00000  Uiso   1.00
C62    C     0.87674   0.43881   0.04028   0.00000  Uiso   1.00
C63    C     0.87673   0.43777   0.96069   0.00000  Uiso   1.00
C64    C     0.90013   0.44897   0.92101   0.00000  Uiso   1.00
C65    C     0.92293   0.46075   0.96233   0.00000  Uiso   1.00
C66    C     0.92293   0.46148   0.03827   0.00000  Uiso   1.00
C67    C     0.94839   0.47423   0.05984   0.00000  Uiso   1.00
N1     N     0.96460   0.48180   0.00015   0.00000  Uiso   1.00
C68    C     0.94838   0.47327   0.94058   0.00000  Uiso   1.00
N2     N     0.95584   0.47684   0.86903   0.00000  Uiso   1.00
C69    C     0.98053   0.48940   0.84731   0.00000  Uiso   1.00
N3     N     0.00113   0.49997   0.89418   0.00000  Uiso   1.00
C70    C     0.02174   0.51057   0.84717   0.00000  Uiso   1.00
C71    C     0.01428   0.50674   0.77345   0.00000  Uiso   1.00
C72    C     0.98800   0.49328   0.77354   0.00000  Uiso   1.00
N4     N     0.03766   0.51814  -0.00009   0.00000  Uiso   1.00
C73    C     0.05388   0.52673   0.94023   0.00000  Uiso   1.00
N5     N     0.04642   0.52318   0.86873   0.00000  Uiso   1.00
C74    C     0.07934   0.53939   0.96184   0.00000  Uiso   1.00
C75    C     0.07933   0.53866   0.03777   0.00000  Uiso   1.00
C76    C     0.05387   0.52579   0.05949   0.00000  Uiso   1.00
C77    C     0.97373   0.48613   0.70732   0.00000  Uiso   1.00
C78    C     0.98776   0.49335   0.64008   0.00000  Uiso   1.00
C79    C     0.01452   0.50684   0.63999   0.00000  Uiso   1.00
C80    C     0.02855   0.51398   0.70714   0.00000  Uiso   1.00
C81    C     0.10210   0.54971   0.07916   0.00000  Uiso   1.00
C82    C     0.12551   0.56194   0.03955   0.00000  Uiso   1.00
C83    C     0.12553   0.56297   0.95996   0.00000  Uiso   1.00
C84    C     0.10213   0.55143   0.92039   0.00000  Uiso   1.00
N6     N     0.00113   0.49998   0.10588   0.00000  Uiso   1.00
C85    C     0.02173   0.50992   0.15275   0.00000  Uiso   1.00
N7     N     0.04641   0.52194   0.13104   0.00000  Uiso   1.00
C86    C     0.01427   0.50637   0.22652   0.00000  Uiso   1.00
C87    C     0.98799   0.49367   0.22661   0.00000  Uiso   1.00
C88    C     0.98053   0.49007   0.15289   0.00000  Uiso   1.00
C89    C     0.97373   0.48671   0.29293   0.00000  Uiso   1.00
C90    C     0.98776   0.49354   0.36007   0.00000  Uiso   1.00
C91    C     0.01452   0.50668   0.35997   0.00000  Uiso   1.00
C92    C     0.02854   0.51343   0.29273   0.00000  Uiso   1.00
N8     N     0.95585   0.47810   0.13133   0.00000  Uiso   1.00
H25    H     0.90047   0.45158   0.14017   0.00000  Uiso   1.00
O13    O     0.85331   0.42798   0.07844   0.00000  Uiso   1.00
O14    O     0.85328   0.42558   0.92271   0.00000  Uiso   1.00
H26    H     0.90043   0.44846   0.86061   0.00000  Uiso   1.00
H27    H     0.95287   0.47555   0.70768   0.00000  Uiso   1.00
O15    O     0.97611   0.48764   0.57081   0.00000  Uiso   1.00
O16    O     0.02617   0.51266   0.57064   0.00000  Uiso   1.00
H28    H     0.04941   0.52458   0.70738   0.00000  Uiso   1.00
H29    H     0.10178   0.54891   0.13957   0.00000  Uiso   1.00
O17    O     0.14895   0.57325   0.07763   0.00000  Uiso   1.00
O18    O     0.14897   0.57562   0.92189   0.00000  Uiso   1.00
H30    H     0.10183   0.55199   0.86000   0.00000  Uiso   1.00
H31    H     0.95287   0.47653   0.29270   0.00000  Uiso   1.00
O19    O     0.97611   0.48775   0.42942   0.00000  Uiso   1.00
O20    O     0.02617   0.51256   0.42924   0.00000  Uiso   1.00
H32    H     0.04940   0.52362   0.29235   0.00000  Uiso   1.00
Ni1    Ni    0.00113   0.49997   0.00003   0.00000  Uiso   1.00
C93    C     0.51124   0.03087   0.70767   0.00000  Uiso   1.00
C94    C     0.50449   0.01684   0.64051   0.00000  Uiso   1.00
C95    C     0.49134   0.99008   0.64056   0.00000  Uiso   1.00
C96    C     0.48452   0.97606   0.70778   0.00000  Uiso   1.00
C97    C     0.49149   0.99032   0.77402   0.00000  Uiso   1.00
C98    C     0.50419   0.01660   0.77397   0.00000  Uiso   1.00
C99    C     0.50775   0.02406   0.84770   0.00000  Uiso   1.00
N9     N     0.49782   0.00346   0.89468   0.00000  Uiso   1.00
C100   C     0.48790   0.98286   0.84778   0.00000  Uiso   1.00
N10    N     0.47592   0.95818   0.86946   0.00000  Uiso   1.00
C101   C     0.47206   0.95071   0.94100   0.00000  Uiso   1.00
N11    N     0.47965   0.96692   0.00060   0.00000  Uiso   1.00
C102   C     0.47113   0.95070   0.06026   0.00000  Uiso   1.00
C103   C     0.45858   0.92524   0.03864   0.00000  Uiso   1.00
C104   C     0.45930   0.92526   0.96270   0.00000  Uiso   1.00
N12    N     0.49786   0.00345   0.10638   0.00000  Uiso   1.00
C105   C     0.48729   0.98285   0.15336   0.00000  Uiso   1.00
N13    N     0.47471   0.95816   0.13178   0.00000  Uiso   1.00
C106   C     0.49118   0.99031   0.22709   0.00000  Uiso   1.00
C107   C     0.50464   0.01660   0.22703   0.00000  Uiso   1.00
C108   C     0.50847   0.02406   0.15327   0.00000  Uiso   1.00
C109   C     0.44851   0.90248   0.92130   0.00000  Uiso   1.00
C110   C     0.43658   0.87906   0.96091   0.00000  Uiso   1.00
C111   C     0.43554   0.87904   0.04050   0.00000  Uiso   1.00
C112   C     0.44679   0.90245   0.08007   0.00000  Uiso   1.00
C113   C     0.51187   0.03086   0.29326   0.00000  Uiso   1.00
C114   C     0.50472   0.01684   0.36049   0.00000  Uiso   1.00
C115   C     0.49123   0.99008   0.36055   0.00000  Uiso   1.00
C116   C     0.48402   0.97605   0.29339   0.00000  Uiso   1.00
N14    N     0.51601   0.03999   0.00045   0.00000  Uiso   1.00
C117   C     0.52461   0.05620   0.06004   0.00000  Uiso   1.00
N15    N     0.52107   0.04874   0.13158   0.00000  Uiso   1.00
C118   C     0.53725   0.08166   0.03832   0.00000  Uiso   1.00
C119   C     0.53651   0.08166   0.96239   0.00000  Uiso   1.00
C120   C     0.52364   0.05620   0.94079   0.00000  Uiso   1.00
C121   C     0.54753   0.10444   0.92090   0.00000  Uiso   1.00
C122   C     0.55974   0.12785   0.96041   0.00000  Uiso   1.00
C123   C     0.56079   0.12785   0.03999   0.00000  Uiso   1.00
C124   C     0.54928   0.10445   0.07966   0.00000  Uiso   1.00
N16    N     0.51978   0.04874   0.86928   0.00000  Uiso   1.00
H33    H     0.52143   0.05173   0.70793   0.00000  Uiso   1.00
O21    O     0.51037   0.02850   0.57117   0.00000  Uiso   1.00
O22    O     0.48556   0.97843   0.57128   0.00000  Uiso   1.00
H34    H     0.47435   0.95520   0.70813   0.00000  Uiso   1.00
H35    H     0.44936   0.90280   0.86090   0.00000  Uiso   1.00
O23    O     0.42571   0.85564   0.92285   0.00000  Uiso   1.00
O24    O     0.42332   0.85559   0.07859   0.00000  Uiso   1.00
H36    H     0.44628   0.90274   0.14048   0.00000  Uiso   1.00
H37    H     0.52247   0.05173   0.29291   0.00000  Uiso   1.00
O25    O     0.51051   0.02849   0.42977   0.00000  Uiso   1.00
O26    O     0.48550   0.97843   0.42989   0.00000  Uiso   1.00
H38    H     0.47344   0.95519   0.29314   0.00000  Uiso   1.00
H39    H     0.54671   0.10413   0.86050   0.00000  Uiso   1.00
O27    O     0.57102   0.15129   0.92224   0.00000  Uiso   1.00
O28    O     0.57342   0.15129   0.07797   0.00000  Uiso   1.00
H40    H     0.54985   0.10414   0.14005   0.00000  Uiso   1.00
Ni2    Ni    0.49783   0.00346   0.00053   0.00000  Uiso   1.00
C125   C     0.49129   0.52102   0.29266   0.00000  Uiso   1.00
C126   C     0.49808   0.51379   0.35984   0.00000  Uiso   1.00
C127   C     0.51128   0.50023   0.35980   0.00000  Uiso   1.00
C128   C     0.51811   0.49305   0.29259   0.00000  Uiso   1.00
C129   C     0.51110   0.50030   0.22635   0.00000  Uiso   1.00
C130   C     0.49835   0.51382   0.22638   0.00000  Uiso   1.00
C131   C     0.49477   0.51770   0.15264   0.00000  Uiso   1.00
N17    N     0.50474   0.50707   0.10568   0.00000  Uiso   1.00
C132   C     0.51470   0.49644   0.15260   0.00000  Uiso   1.00
N18    N     0.52670   0.48376   0.13094   0.00000  Uiso   1.00
C133   C     0.53057   0.48017   0.05941   0.00000  Uiso   1.00
N19    N     0.52297   0.48878  -0.00021   0.00000  Uiso   1.00
C134   C     0.53149   0.48108   0.94014   0.00000  Uiso   1.00
C135   C     0.54401   0.46816   0.96179   0.00000  Uiso   1.00
C136   C     0.54330   0.46746   0.03773   0.00000  Uiso   1.00
N20    N     0.50470   0.50702   0.89398   0.00000  Uiso   1.00
C137   C     0.51530   0.49702   0.84702   0.00000  Uiso   1.00
N21    N     0.52789   0.48494   0.86863   0.00000  Uiso   1.00
C138   C     0.51141   0.50059   0.77328   0.00000  Uiso   1.00
C139   C     0.49791   0.51337   0.77331   0.00000  Uiso   1.00
C140   C     0.49407   0.51698   0.84707   0.00000  Uiso   1.00
C141   C     0.55403   0.45542   0.07914   0.00000  Uiso   1.00
C142   C     0.56588   0.44386   0.03955   0.00000  Uiso   1.00
C143   C     0.56690   0.44486   0.95995   0.00000  Uiso   1.00
C144   C     0.55573   0.45709   0.92037   0.00000  Uiso   1.00
C145   C     0.49068   0.52039   0.70707   0.00000  Uiso   1.00
C146   C     0.49786   0.51356   0.63986   0.00000  Uiso   1.00
C147   C     0.51139   0.50034   0.63982   0.00000  Uiso   1.00
C148   C     0.51860   0.49352   0.70699   0.00000  Uiso   1.00
N22    N     0.48647   0.52532  -0.00013   0.00000  Uiso   1.00
C149   C     0.47784   0.53290   0.94026   0.00000  Uiso   1.00
N23    N     0.48141   0.52900   0.86873   0.00000  Uiso   1.00
C150   C     0.46515   0.54565   0.96195   0.00000  Uiso   1.00
C151   C     0.46588   0.54639   0.03788   0.00000  Uiso   1.00
C152   C     0.47880   0.53386   0.05951   0.00000  Uiso   1.00
C153   C     0.45484   0.55813   0.07933   0.00000  Uiso   1.00
C154   C     0.44260   0.56929   0.03979   0.00000  Uiso   1.00
C155   C     0.44156   0.56824   0.96021   0.00000  Uiso   1.00
C156   C     0.45310   0.55637   0.92058   0.00000  Uiso   1.00
N24    N     0.48269   0.53029   0.13103   0.00000  Uiso   1.00
H41    H     0.48105   0.53164   0.29239   0.00000  Uiso   1.00
O29    O     0.49221   0.51957   0.42917   0.00000  Uiso   1.00
O30    O     0.51711   0.49442   0.42909   0.00000  Uiso   1.00
H42    H     0.52833   0.48241   0.29225   0.00000  Uiso   1.00
H43    H     0.55317   0.45488   0.13955   0.00000  Uiso   1.00
O31    O     0.57667   0.43123   0.07762   0.00000  Uiso   1.00
O32    O     0.57904   0.43355   0.92187   0.00000  Uiso   1.00
H44    H     0.55623   0.45788   0.85996   0.00000  Uiso   1.00
H45    H     0.48006   0.53064   0.70740   0.00000  Uiso   1.00
O33    O     0.49208   0.51942   0.57056   0.00000  Uiso   1.00
O34    O     0.51718   0.49448   0.57049   0.00000  Uiso   1.00
H46    H     0.52921   0.48327   0.70726   0.00000  Uiso   1.00
H47    H     0.45566   0.55865   0.13973   0.00000  Uiso   1.00
O35    O     0.43131   0.58143   0.07791   0.00000  Uiso   1.00
O36    O     0.42890   0.57901   0.92219   0.00000  Uiso   1.00
H48    H     0.45253   0.55550   0.86019   0.00000  Uiso   1.00
Ni3    Ni    0.50472   0.50705  -0.00017   0.00000  Uiso   1.00
Cu1    Cu    0.00114   0.50015   0.50003   0.00000  Uiso   1.00
Cu2    Cu    0.49799   0.00346   0.50053   0.00000  Uiso   1.00
Cu3    Cu    0.50464   0.50697   0.49983   0.00000  Uiso   1.00
Zn1    Zn    0.17093   0.58574  -0.00021   0.00000  Uiso   1.00
Zn2    Zn    0.58351   0.17326   0.00001   0.00000  Uiso   1.00
Zn3    Zn    0.41880   0.59088   0.00012   0.00000  Uiso   1.00
Zn4    Zn    0.83133   0.41609   0.00063   0.00000  Uiso   1.00
Zn5    Zn    0.41380   0.83364   0.00075   0.00000  Uiso   1.00
Zn6    Zn    0.58853   0.42109  -0.00026   0.00000  Uiso   1.00
loop_
_geom_bond_atom_site_label_1
_geom_bond_atom_site_label_2
_geom_bond_distance
_geom_bond_site_symmetry_2
_ccdc_geom_bond_type
C1     C2      1.427   .     A
C1     C6      1.429   .     A
C1     C11     1.422   .     A
C2     C3      1.429   .     A
C2     C14     1.423   .     A
C3     C4      1.427   .     A
C3     C10     1.423   .     A
C4     C5      1.429   .     A
C4     C7      1.423   .     A
C5     C6      1.427   .     A
C5     C18     1.422   .     A
C6     C15     1.423   .     A
C7     C8      1.396   .     A
C7     H1      1.076   .     S
C8     C9      1.404   .     A
C8     C26     1.407   .     A
C9     C10     1.396   .     A
C9     C23     1.407   .     A
C10    H2      1.076   .     S
C11    C12     1.396   .     A
C11    H3      1.076   .     S
C12    C13     1.404   .     A
C12    C30     1.407   .     A
C13    C14     1.396   .     A
C13    C27     1.407   .     A
C14    H4      1.076   .     S
C15    C16     1.396   .     A
C15    H5      1.076   .     S
C16    C17     1.404   .     A
C16    C22     1.407   .     A
C17    C18     1.396   .     A
C17    C19     1.407   .     A
C18    H6      1.076   .     S
C19    C20     1.396   .     A
C19    H7      1.084   .     S
C20    C21     1.410   .     A
C20    O1      1.395   .     S
C21    C22     1.396   .     A
C21    O2      1.395   .     S
C22    H8      1.084   .     S
C23    C24     1.396   .     A
C23    H9      1.084   .     S
C24    C25     1.410   .     A
C24    O3      1.395   .     S
C25    C26     1.396   .     A
C25    O4      1.395   .     S
C26    H10     1.084   .     S
O1     Zn5     1.801   .     S
O2     Zn5     1.801   .     S
O3     Zn3     1.801   .     S
O4     Zn3     1.801   .     S
C27    C28     1.396   .     A
C27    H11     1.084   .     S
C28    C29     1.410   .     A
C28    O5      1.395   .     S
C29    C30     1.396   .     A
C29    O6      1.395   .     S
C30    H12     1.084   .     S
O5     Zn1     1.801   .     S
O6     Zn1     1.801   .     S
C31    C32     1.427   .     A
C31    C36     1.429   .     A
C31    C41     1.423   .     A
C32    C33     1.429   .     A
C32    C44     1.423   .     A
C33    C34     1.427   .     A
C33    C40     1.423   .     A
C34    C35     1.429   .     A
C34    C37     1.423   .     A
C35    C36     1.427   .     A
C35    C48     1.423   .     A
C36    C45     1.422   .     A
C37    C38     1.396   .     A
C37    H13     1.076   .     S
C38    C39     1.404   .     A
C38    C56     1.407   .     A
C39    C40     1.396   .     A
C39    C53     1.407   .     A
C40    H14     1.076   .     S
C41    C42     1.396   .     A
C41    H15     1.076   .     S
C42    C43     1.404   .     A
C42    C60     1.407   .     A
C43    C44     1.396   .     A
C43    C57     1.407   .     A
C44    H16     1.076   .     S
C45    C46     1.396   .     A
C45    H17     1.076   .     S
C46    C47     1.404   .     A
C46    C52     1.407   .     A
C47    C48     1.396   .     A
C47    C49     1.407   .     A
C48    H18     1.076   .     S
C49    C50     1.396   .     A
C49    H19     1.084   .     S
C50    C51     1.410   .     A
C50    O7      1.395   .     S
C51    C52     1.396   .     A
C51    O8      1.395   .     S
C52    H20     1.084   .     S
C53    C54     1.396   .     A
C53    H21     1.084   .     S
C54    C55     1.410   .     A
C54    O9      1.395   .     S
C55    C56     1.396   .     A
C55    O10     1.395   .     S
C56    H22     1.084   .     S
O7     Zn2     1.801   .     S
O8     Zn2     1.801   .     S
O9     Zn6     1.801   .     S
O10    Zn6     1.801   .     S
C57    C58     1.396   .     A
C57    H23     1.084   .     S
C58    C59     1.410   .     A
C58    O11     1.395   .     S
C59    C60     1.396   .     A
C59    O12     1.395   .     S
C60    H24     1.084   .     S
O11    Zn4     1.801   .     S
O12    Zn4     1.801   .     S
C61    C62     1.406   .     A
C61    C66     1.396   .     A
C61    H25     1.083   .     S
C62    C63     1.427   1_554 A
C62    O13     1.395   .     S
C63    C62     1.427   1_556 A
C63    C64     1.406   .     A
C63    O14     1.395   .     S
C64    C65     1.396   .     A
C64    H26     1.083   .     S
C65    C66     1.361   1_556 A
C65    C68     1.377   .     A
C66    C65     1.361   1_554 A
C66    C67     1.376   .     A
C67    N1      1.360   .     A
C67    N8      1.338   .     A
N1     C68     1.360   1_554 A
N1     Ni1     1.895   1_655 S
C68    N1      1.360   1_556 A
C68    N2      1.338   .     A
N2     C69     1.338   .     A
C69    N3      1.360   1_655 A
C69    C72     1.376   .     A
N3     C69     1.360   1_455 A
N3     C70     1.360   .     A
N3     Ni1     1.896   1_556 S
C70    C71     1.376   .     A
C70    N5      1.338   .     A
C71    C72     1.364   1_455 A
C71    C80     1.399   .     A
C72    C71     1.364   1_655 A
C72    C77     1.399   .     A
N4     C73     1.360   1_554 A
N4     C76     1.360   .     A
N4     Ni1     1.895   .     S
C73    N4      1.360   1_556 A
C73    N5      1.338   .     A
C73    C74     1.377   .     A
C74    C75     1.360   1_556 A
C74    C84     1.396   .     A
C75    C74     1.360   1_554 A
C75    C76     1.376   .     A
C75    C81     1.396   .     A
C76    N7      1.338   .     A
C77    C78     1.406   .     A
C77    H27     1.082   .     S
C78    C79     1.388   1_655 A
C78    O15     1.381   .     S
C79    C78     1.388   1_455 A
C79    C80     1.406   .     A
C79    O16     1.381   .     S
C80    H28     1.082   .     S
C81    C82     1.406   .     A
C81    H29     1.083   .     S
C82    C83     1.427   1_554 A
C82    O17     1.395   .     S
C83    C82     1.427   1_556 A
C83    C84     1.406   .     A
C83    O18     1.395   .     S
C84    H30     1.083   .     S
N6     C85     1.360   .     A
N6     C88     1.360   1_455 A
N6     Ni1     1.896   .     S
C85    N7      1.338   .     A
C85    C86     1.376   .     A
C86    C87     1.363   1_455 A
C86    C92     1.399   .     A
C87    C86     1.363   1_655 A
C87    C88     1.376   .     A
C87    C89     1.399   .     A
C88    N6      1.360   1_655 A
C88    N8      1.338   .     A
C89    C90     1.406   .     A
C89    H31     1.082   .     S
C90    C91     1.388   1_655 A
C90    O19     1.381   .     S
C91    C90     1.388   1_455 A
C91    C92     1.406   .     A
C91    O20     1.381   .     S
C92    H32     1.082   .     S
O13    Zn4     1.803   .     S
O14    Zn4     1.803   1_556 S
O15    Cu1     1.814   1_655 S
O16    Cu1     1.814   .     S
O17    Zn1     1.802   .     S
O18    Zn1     1.803   1_556 S
O19    Cu1     1.814   1_655 S
O20    Cu1     1.814   .     S
Ni1    N1      1.895   1_455 S
Ni1    N3      1.896   1_554 S
C93    C94     1.406   .     A
C93    C98     1.399   .     A
C93    H33     1.082   .     S
C94    C95     1.388   1_545 A
C94    O21     1.381   .     S
C95    C94     1.388   1_565 A
C95    C96     1.406   .     A
C95    O22     1.381   .     S
C96    C97     1.399   .     A
C96    H34     1.082   .     S
C97    C98     1.363   1_565 A
C97    C100    1.376   .     A
C98    C97     1.363   1_545 A
C98    C99     1.376   .     A
C99    N9      1.360   .     A
C99    N16     1.338   .     A
N9     C100    1.360   1_545 A
N9     Ni2     1.896   1_556 S
C100   N9      1.360   1_565 A
C100   N10     1.338   .     A
N10    C101    1.338   .     A
C101   N11     1.360   1_556 A
C101   C104    1.376   .     A
N11    C101    1.360   1_554 A
N11    C102    1.360   .     A
N11    Ni2     1.895   1_565 S
C102   C103    1.377   .     A
C102   N13     1.338   .     A
C103   C104    1.361   1_554 A
C103   C112    1.396   .     A
C104   C103    1.361   1_556 A
C104   C109    1.396   .     A
N12    C105    1.360   1_545 A
N12    C108    1.360   .     A
N12    Ni2     1.896   .     S
C105   N12     1.360   1_565 A
C105   N13     1.338   .     A
C105   C106    1.376   .     A
C106   C107    1.363   1_565 A
C106   C116    1.399   .     A
C107   C106    1.363   1_545 A
C107   C108    1.376   .     A
C107   C113    1.399   .     A
C108   N15     1.338   .     A
C109   C110    1.406   .     A
C109   H35     1.083   .     S
C110   C111    1.427   1_556 A
C110   O23     1.395   .     S
C111   C110    1.427   1_554 A
C111   C112    1.407   .     A
C111   O24     1.395   .     S
C112   H36     1.083   .     S
C113   C114    1.406   .     A
C113   H37     1.082   .     S
C114   C115    1.388   1_545 A
C114   O25     1.381   .     S
C115   C114    1.388   1_565 A
C115   C116    1.406   .     A
C115   O26     1.381   .     S
C116   H38     1.082   .     S
N14    C117    1.360   .     A
N14    C120    1.360   1_554 A
N14    Ni2     1.895   .     S
C117   N15     1.338   .     A
C117   C118    1.377   .     A
C118   C119    1.360   1_554 A
C118   C124    1.396   .     A
C119   C118    1.360   1_556 A
C119   C120    1.376   .     A
C119   C121    1.396   .     A
C120   N14     1.360   1_556 A
C120   N16     1.338   .     A
C121   C122    1.406   .     A
C121   H39     1.083   .     S
C122   C123    1.427   1_556 A
C122   O27     1.395   .     S
C123   C122    1.427   1_554 A
C123   C124    1.406   .     A
C123   O28     1.395   .     S
C124   H40     1.083   .     S
O21    Cu2     1.814   .     S
O22    Cu2     1.814   1_565 S
O23    Zn5     1.802   1_556 S
O24    Zn5     1.803   .     S
O25    Cu2     1.814   .     S
O26    Cu2     1.814   1_565 S
O27    Zn2     1.802   1_556 S
O28    Zn2     1.802   .     S
Ni2    N11     1.895   1_545 S
Ni2    N9      1.896   1_554 S
C125   C126    1.406   .     A
C125   C130    1.399   .     A
C125   H41     1.082   .     S
C126   C127    1.388   .     A
C126   O29     1.381   .     S
C127   C128    1.406   .     A
C127   O30     1.381   .     S
C128   C129    1.399   .     A
C128   H42     1.082   .     S
C129   C130    1.363   .     A
C129   C132    1.376   .     A
C130   C131    1.376   .     A
C131   N17     1.360   .     A
C131   N24     1.338   .     A
N17    C132    1.360   .     A
N17    Ni3     1.896   .     S
C132   N18     1.338   .     A
N18    C133    1.338   .     A
C133   N19     1.360   .     A
C133   C136    1.376   .     A
N19    C134    1.360   1_554 A
N19    Ni3     1.895   .     S
C134   N19     1.360   1_556 A
C134   C135    1.377   .     A
C134   N21     1.338   .     A
C135   C136    1.361   1_556 A
C135   C144    1.396   .     A
C136   C135    1.361   1_554 A
C136   C141    1.396   .     A
N20    C137    1.360   .     A
N20    C140    1.360   .     A
N20    Ni3     1.896   1_556 S
C137   N21     1.338   .     A
C137   C138    1.376   .     A
C138   C139    1.363   .     A
C138   C148    1.399   .     A
C139   C140    1.376   .     A
C139   C145    1.399   .     A
C140   N23     1.338   .     A
C141   C142    1.406   .     A
C141   H43     1.083   .     S
C142   C143    1.427   1_554 A
C142   O31     1.395   .     S
C143   C142    1.427   1_556 A
C143   C144    1.407   .     A
C143   O32     1.395   .     S
C144   H44     1.083   .     S
C145   C146    1.406   .     A
C145   H45     1.082   .     S
C146   C147    1.388   .     A
C146   O33     1.381   .     S
C147   C148    1.406   .     A
C147   O34     1.381   .     S
C148   H46     1.082   .     S
N22    C149    1.360   1_554 A
N22    C152    1.360   .     A
N22    Ni3     1.895   .     S
C149   N22     1.360   1_556 A
C149   N23     1.338   .     A
C149   C150    1.377   .     A
C150   C151    1.361   1_556 A
C150   C156    1.396   .     A
C151   C150    1.361   1_554 A
C151   C152    1.377   .     A
C151   C153    1.396   .     A
C152   N24     1.338   .     A
C153   C154    1.406   .     A
C153   H47     1.083   .     S
C154   C155    1.427   1_554 A
C154   O35     1.395   .     S
C155   C154    1.427   1_556 A
C155   C156    1.406   .     A
C155   O36     1.395   .     S
C156   H48     1.083   .     S
O29    Cu3     1.814   .     S
O30    Cu3     1.814   .     S
O31    Zn6     1.803   .     S
O32    Zn6     1.803   1_556 S
O33    Cu3     1.814   .     S
O34    Cu3     1.814   .     S
O35    Zn3     1.803   .     S
O36    Zn3     1.803   1_556 S
Ni3    N20     1.896   1_554 S
Cu1    O15     1.814   1_455 S
Cu1    O19     1.814   1_455 S
Cu2    O22     1.814   1_545 S
Cu2    O26     1.814   1_545 S
Zn1    O18     1.803   1_554 S
Zn2    O27     1.802   1_554 S
Zn3    O36     1.803   1_554 S
Zn4    O14     1.803   1_554 S
Zn5    O23     1.802   1_554 S
Zn6    O32     1.803   1_554 S
