data_tfz-TP_O-PcM_O-Zntet
_audit_creation_date              2021-11-06
_audit_creation_method            'Materials Studio'
_symmetry_space_group_name_H-M    'P1'
_symmetry_Int_Tables_number       1
_symmetry_cell_setting            triclinic
loop_
_symmetry_equiv_pos_as_xyz
  x,y,z
_cell_length_a                    51.4330
_cell_length_b                    51.4338
_cell_length_c                    17.9084
_cell_angle_alpha                 90.0029
_cell_angle_beta                  89.9988
_cell_angle_gamma                 119.8069
loop_
_atom_site_label
_atom_site_type_symbol
_atom_site_fract_x
_atom_site_fract_y
_atom_site_fract_z
_atom_site_U_iso_or_equiv
_atom_site_adp_type
_atom_site_occupancy
C1     C     0.37161   0.69958   0.00032   0.00000  Uiso   1.00
C2     C     0.34356   0.69910   0.00033   0.00000  Uiso   1.00
C3     C     0.31614   0.67114   0.00031   0.00000  Uiso   1.00
C4     C     0.31674   0.64362   0.00024   0.00000  Uiso   1.00
C5     C     0.34475   0.64411   0.00021   0.00000  Uiso   1.00
C6     C     0.37221   0.67211   0.00034   0.00000  Uiso   1.00
C7     C     0.28893   0.61620   0.00026   0.00000  Uiso   1.00
C8     C     0.26170   0.61571   0.00030   0.00000  Uiso   1.00
C9     C     0.26112   0.64256   0.00035   0.00000  Uiso   1.00
C10    C     0.28777   0.66973   0.00035   0.00000  Uiso   1.00
C11    C     0.39846   0.72790   0.00026   0.00000  Uiso   1.00
C12    C     0.39790   0.75461   0.00031   0.00000  Uiso   1.00
C13    C     0.37053   0.75414   0.00037   0.00000  Uiso   1.00
C14    C     0.34388   0.72696   0.00037   0.00000  Uiso   1.00
C15    C     0.39968   0.67168   0.00051   0.00000  Uiso   1.00
C16    C     0.40028   0.64499   0.00042   0.00000  Uiso   1.00
C17    C     0.37349   0.61766   0.00018   0.00000  Uiso   1.00
C18    C     0.34626   0.61720   0.00007   0.00000  Uiso   1.00
H1     H     0.28713   0.59448   0.00028   0.00000  Uiso   1.00
O1     O     0.23478   0.58850   0.00031   0.00000  Uiso   1.00
O2     O     0.23362   0.64184   0.00040   0.00000  Uiso   1.00
H2     H     0.28508   0.68914   0.00039   0.00000  Uiso   1.00
H3     H     0.42052   0.73051   0.00012   0.00000  Uiso   1.00
O3     O     0.42458   0.78205   0.00031   0.00000  Uiso   1.00
O4     O     0.37019   0.78112   0.00040   0.00000  Uiso   1.00
H4     H     0.32401   0.72884   0.00040   0.00000  Uiso   1.00
H5     H     0.42137   0.69151   0.00076   0.00000  Uiso   1.00
O5     O     0.42755   0.64523   0.00056   0.00000  Uiso   1.00
O6     O     0.37431   0.59093   0.00010   0.00000  Uiso   1.00
H6     H     0.32690   0.59518  -0.00015   0.00000  Uiso   1.00
C19    C     0.65017   0.31018   0.00024   0.00000  Uiso   1.00
C20    C     0.67769   0.30960   0.00043   0.00000  Uiso   1.00
C21    C     0.70564   0.33703   0.00040   0.00000  Uiso   1.00
C22    C     0.70612   0.36507   0.00030   0.00000  Uiso   1.00
C23    C     0.67864   0.36566   0.00026   0.00000  Uiso   1.00
C24    C     0.65064   0.33819   0.00025   0.00000  Uiso   1.00
C25    C     0.73443   0.39193   0.00025   0.00000  Uiso   1.00
C26    C     0.76115   0.39137   0.00032   0.00000  Uiso   1.00
C27    C     0.76068   0.36401   0.00041   0.00000  Uiso   1.00
C28    C     0.73351   0.33736   0.00042   0.00000  Uiso   1.00
C29    C     0.62275   0.28237   0.00006   0.00000  Uiso   1.00
C30    C     0.62228   0.25515   0.00023   0.00000  Uiso   1.00
C31    C     0.64914   0.25458   0.00052   0.00000  Uiso   1.00
C32    C     0.67630   0.28124   0.00063   0.00000  Uiso   1.00
C33    C     0.62372   0.33969   0.00032   0.00000  Uiso   1.00
C34    C     0.62418   0.36691   0.00030   0.00000  Uiso   1.00
C35    C     0.65149   0.39371   0.00026   0.00000  Uiso   1.00
C36    C     0.67819   0.39313   0.00025   0.00000  Uiso   1.00
H7     H     0.73704   0.41398   0.00015   0.00000  Uiso   1.00
O7     O     0.78859   0.41806   0.00030   0.00000  Uiso   1.00
O8     O     0.78766   0.36367   0.00046   0.00000  Uiso   1.00
H8     H     0.73540   0.31749   0.00041   0.00000  Uiso   1.00
H9     H     0.60103   0.28056  -0.00026   0.00000  Uiso   1.00
O9     O     0.59508   0.22821   0.00012   0.00000  Uiso   1.00
O10    O     0.64844   0.22709   0.00067   0.00000  Uiso   1.00
H10    H     0.69571   0.27856   0.00091   0.00000  Uiso   1.00
H11    H     0.60171   0.32033   0.00045   0.00000  Uiso   1.00
O11    O     0.59744   0.36772   0.00035   0.00000  Uiso   1.00
O12    O     0.65172   0.42097   0.00026   0.00000  Uiso   1.00
H12    H     0.69802   0.41481   0.00026   0.00000  Uiso   1.00
C37    C     0.89376   0.44245   0.07985   0.00000  Uiso   1.00
C38    C     0.86655   0.42902   0.04025   0.00000  Uiso   1.00
C39    C     0.86655   0.42899   0.96058   0.00000  Uiso   1.00
C40    C     0.89376   0.44240   0.92099   0.00000  Uiso   1.00
C41    C     0.92025   0.45552   0.96244   0.00000  Uiso   1.00
C42    C     0.92025   0.45554   0.03841   0.00000  Uiso   1.00
C43    C     0.94985   0.47033   0.06008   0.00000  Uiso   1.00
N1     N     0.96869   0.47975   0.00043   0.00000  Uiso   1.00
C44    C     0.94985   0.47030   0.94078   0.00000  Uiso   1.00
N2     N     0.95852   0.47464   0.86926   0.00000  Uiso   1.00
C45    C     0.98722   0.48906   0.84763   0.00000  Uiso   1.00
N3     N     0.01117   0.50119   0.89458   0.00000  Uiso   1.00
C46    C     0.03512   0.51329   0.84763   0.00000  Uiso   1.00
C47    C     0.02644   0.50886   0.77389   0.00000  Uiso   1.00
C48    C     0.99589   0.49342   0.77389   0.00000  Uiso   1.00
N4     N     0.05364   0.52268   0.00043   0.00000  Uiso   1.00
C49    C     0.07248   0.53228   0.94078   0.00000  Uiso   1.00
N5     N     0.06381   0.52787   0.86926   0.00000  Uiso   1.00
C50    C     0.10208   0.54737   0.96244   0.00000  Uiso   1.00
C51    C     0.10208   0.54736   0.03841   0.00000  Uiso   1.00
C52    C     0.07249   0.53227   0.06008   0.00000  Uiso   1.00
C53    C     0.97931   0.48501   0.70763   0.00000  Uiso   1.00
C54    C     0.99561   0.49324   0.64043   0.00000  Uiso   1.00
C55    C     0.02672   0.50897   0.64043   0.00000  Uiso   1.00
C56    C     0.04302   0.51723   0.70762   0.00000  Uiso   1.00
C57    C     0.12857   0.56093   0.07985   0.00000  Uiso   1.00
C58    C     0.15578   0.57489   0.04024   0.00000  Uiso   1.00
C59    C     0.15577   0.57490   0.96057   0.00000  Uiso   1.00
C60    C     0.12856   0.56095   0.92099   0.00000  Uiso   1.00
N6     N     0.01117   0.50120   0.10628   0.00000  Uiso   1.00
C61    C     0.03512   0.51329   0.15323   0.00000  Uiso   1.00
N7     N     0.06382   0.52785   0.13160   0.00000  Uiso   1.00
C62    C     0.02644   0.50888   0.22697   0.00000  Uiso   1.00
C63    C     0.99589   0.49344   0.22697   0.00000  Uiso   1.00
C64    C     0.98722   0.48909   0.15323   0.00000  Uiso   1.00
C65    C     0.97931   0.48504   0.29323   0.00000  Uiso   1.00
C66    C     0.99561   0.49326   0.36043   0.00000  Uiso   1.00
C67    C     0.02672   0.50898   0.36043   0.00000  Uiso   1.00
C68    C     0.04302   0.51725   0.29324   0.00000  Uiso   1.00
N8     N     0.95852   0.47468   0.13160   0.00000  Uiso   1.00
H13    H     0.89411   0.44269   0.14030   0.00000  Uiso   1.00
O13    O     0.83930   0.41570   0.07838   0.00000  Uiso   1.00
O14    O     0.83930   0.41564   0.92243   0.00000  Uiso   1.00
H14    H     0.89412   0.44260   0.86055   0.00000  Uiso   1.00
H15    H     0.95505   0.47275   0.70793   0.00000  Uiso   1.00
O15    O     0.98207   0.48638   0.57112   0.00000  Uiso   1.00
O16    O     0.04026   0.51580   0.57112   0.00000  Uiso   1.00
H16    H     0.06728   0.52950   0.70791   0.00000  Uiso   1.00
H17    H     0.12821   0.56075   0.14029   0.00000  Uiso   1.00
O17    O     0.18303   0.58888   0.07837   0.00000  Uiso   1.00
O18    O     0.18302   0.58890   0.92242   0.00000  Uiso   1.00
H18    H     0.12820   0.56079   0.86054   0.00000  Uiso   1.00
H19    H     0.95506   0.47278   0.29293   0.00000  Uiso   1.00
O19    O     0.98207   0.48638   0.42973   0.00000  Uiso   1.00
O20    O     0.04026   0.51582   0.42974   0.00000  Uiso   1.00
H20    H     0.06728   0.52951   0.29295   0.00000  Uiso   1.00
Ni1    Ni    0.01117   0.50120   0.00043   0.00000  Uiso   1.00
C69    C     0.52418   0.03648   0.70764   0.00000  Uiso   1.00
C70    C     0.51590   0.02017   0.64044   0.00000  Uiso   1.00
C71    C     0.50015   0.98907   0.64044   0.00000  Uiso   1.00
C72    C     0.49192   0.97277   0.70764   0.00000  Uiso   1.00
C73    C     0.50034   0.98935   0.77390   0.00000  Uiso   1.00
C74    C     0.51580   0.01990   0.77390   0.00000  Uiso   1.00
C75    C     0.52021   0.02857   0.84765   0.00000  Uiso   1.00
N9     N     0.50808   0.00462   0.89459   0.00000  Uiso   1.00
C76    C     0.49596   0.98067   0.84764   0.00000  Uiso   1.00
N10    N     0.48150   0.95198   0.86927   0.00000  Uiso   1.00
C77    C     0.47712   0.94331   0.94079   0.00000  Uiso   1.00
N11    N     0.48658   0.96215   0.00044   0.00000  Uiso   1.00
C78    C     0.47711   0.94330   0.06008   0.00000  Uiso   1.00
C79    C     0.46227   0.91371   0.03841   0.00000  Uiso   1.00
C80    C     0.46228   0.91371   0.96244   0.00000  Uiso   1.00
N12    N     0.50802   0.00462   0.10629   0.00000  Uiso   1.00
C81    C     0.49590   0.98067   0.15324   0.00000  Uiso   1.00
N13    N     0.48146   0.95198   0.13160   0.00000  Uiso   1.00
C82    C     0.50025   0.98935   0.22698   0.00000  Uiso   1.00
C83    C     0.51569   0.01990   0.22699   0.00000  Uiso   1.00
C84    C     0.52011   0.02858   0.15324   0.00000  Uiso   1.00
C85    C     0.44911   0.88722   0.92098   0.00000  Uiso   1.00
C86    C     0.43561   0.86001   0.96057   0.00000  Uiso   1.00
C87    C     0.43562   0.86000   0.04024   0.00000  Uiso   1.00
C88    C     0.44910   0.88722   0.07985   0.00000  Uiso   1.00
C89    C     0.52407   0.03648   0.29325   0.00000  Uiso   1.00
C90    C     0.51582   0.02018   0.36044   0.00000  Uiso   1.00
C91    C     0.50008   0.98907   0.36044   0.00000  Uiso   1.00
C92    C     0.49185   0.97277   0.29324   0.00000  Uiso   1.00
N14    N     0.52955   0.04710   0.00045   0.00000  Uiso   1.00
C93    C     0.53909   0.06594   0.06009   0.00000  Uiso   1.00
N15    N     0.53467   0.05727   0.13162   0.00000  Uiso   1.00
C94    C     0.55416   0.09554   0.03843   0.00000  Uiso   1.00
C95    C     0.55420   0.09553   0.96246   0.00000  Uiso   1.00
C96    C     0.53916   0.06594   0.94080   0.00000  Uiso   1.00
C97    C     0.56776   0.12202   0.92101   0.00000  Uiso   1.00
C98    C     0.58163   0.14923   0.96060   0.00000  Uiso   1.00
C99    C     0.58156   0.14924   0.04027   0.00000  Uiso   1.00
C100   C     0.56764   0.12203   0.07987   0.00000  Uiso   1.00
N16    N     0.53477   0.05727   0.86928   0.00000  Uiso   1.00
H21    H     0.53645   0.06073   0.70793   0.00000  Uiso   1.00
O21    O     0.52272   0.03372   0.57114   0.00000  Uiso   1.00
O22    O     0.49327   0.97553   0.57113   0.00000  Uiso   1.00
H22    H     0.47965   0.94851   0.70793   0.00000  Uiso   1.00
H23    H     0.44933   0.88758   0.86054   0.00000  Uiso   1.00
O23    O     0.42221   0.83276   0.92241   0.00000  Uiso   1.00
O24    O     0.42222   0.83275   0.07837   0.00000  Uiso   1.00
H24    H     0.44932   0.88757   0.14029   0.00000  Uiso   1.00
H25    H     0.53635   0.06073   0.29296   0.00000  Uiso   1.00
O25    O     0.52267   0.03372   0.42975   0.00000  Uiso   1.00
O26    O     0.49322   0.97553   0.42974   0.00000  Uiso   1.00
H26    H     0.47958   0.94851   0.29294   0.00000  Uiso   1.00
H27    H     0.56764   0.12165   0.86057   0.00000  Uiso   1.00
O27    O     0.59562   0.17647   0.92245   0.00000  Uiso   1.00
O28    O     0.59546   0.17649   0.07840   0.00000  Uiso   1.00
H28    H     0.56743   0.12167   0.14032   0.00000  Uiso   1.00
Ni2    Ni    0.50806   0.00462   0.00044   0.00000  Uiso   1.00
C101   C     0.49869   0.52410   0.29318   0.00000  Uiso   1.00
C102   C     0.50693   0.51599   0.36037   0.00000  Uiso   1.00
C103   C     0.52253   0.50039   0.36037   0.00000  Uiso   1.00
C104   C     0.53065   0.49216   0.29318   0.00000  Uiso   1.00
C105   C     0.52228   0.50042   0.22692   0.00000  Uiso   1.00
C106   C     0.50695   0.51573   0.22692   0.00000  Uiso   1.00
C107   C     0.50254   0.52003   0.15317   0.00000  Uiso   1.00
N17    N     0.51455   0.50801   0.10623   0.00000  Uiso   1.00
C108   C     0.52658   0.49602   0.15317   0.00000  Uiso   1.00
N18    N     0.54090   0.48155   0.13154   0.00000  Uiso   1.00
C109   C     0.54520   0.47716   0.06002   0.00000  Uiso   1.00
N19    N     0.53582   0.48669   0.00037   0.00000  Uiso   1.00
C110   C     0.54518   0.47715   0.94072   0.00000  Uiso   1.00
C111   C     0.55987   0.46215   0.96238   0.00000  Uiso   1.00
C112   C     0.55988   0.46216   0.03835   0.00000  Uiso   1.00
N20    N     0.51459   0.50805   0.89452   0.00000  Uiso   1.00
C113   C     0.52661   0.49605   0.84757   0.00000  Uiso   1.00
N21    N     0.54089   0.48155   0.86920   0.00000  Uiso   1.00
C114   C     0.52234   0.50048   0.77383   0.00000  Uiso   1.00
C115   C     0.50704   0.51582   0.77383   0.00000  Uiso   1.00
C116   C     0.50263   0.52012   0.84758   0.00000  Uiso   1.00
C117   C     0.57294   0.44865   0.07978   0.00000  Uiso   1.00
C118   C     0.58631   0.43473   0.04018   0.00000  Uiso   1.00
C119   C     0.58630   0.43472   0.96051   0.00000  Uiso   1.00
C120   C     0.57291   0.44862   0.92092   0.00000  Uiso   1.00
C121   C     0.49878   0.52420   0.70757   0.00000  Uiso   1.00
C122   C     0.50700   0.51606   0.64038   0.00000  Uiso   1.00
C123   C     0.52258   0.50044   0.64037   0.00000  Uiso   1.00
C124   C     0.53069   0.49220   0.70756   0.00000  Uiso   1.00
N22    N     0.49325   0.52931   0.00038   0.00000  Uiso   1.00
C125   C     0.48376   0.53872   0.94073   0.00000  Uiso   1.00
N23    N     0.48818   0.53444   0.86921   0.00000  Uiso   1.00
C126   C     0.46877   0.55341   0.96239   0.00000  Uiso   1.00
C127   C     0.46871   0.55335   0.03836   0.00000  Uiso   1.00
C128   C     0.48369   0.53865   0.06003   0.00000  Uiso   1.00
C129   C     0.45517   0.56638   0.07980   0.00000  Uiso   1.00
C130   C     0.44129   0.57979   0.04020   0.00000  Uiso   1.00
C131   C     0.44136   0.57986   0.96053   0.00000  Uiso   1.00
C132   C     0.45529   0.56650   0.92094   0.00000  Uiso   1.00
N24    N     0.48806   0.53433   0.13155   0.00000  Uiso   1.00
H29    H     0.48653   0.53627   0.29289   0.00000  Uiso   1.00
O29    O     0.50021   0.52286   0.42968   0.00000  Uiso   1.00
O30    O     0.52938   0.49366   0.42968   0.00000  Uiso   1.00
H30    H     0.54282   0.48001   0.29288   0.00000  Uiso   1.00
H31    H     0.57274   0.44881   0.14023   0.00000  Uiso   1.00
O31    O     0.59966   0.42075   0.07831   0.00000  Uiso   1.00
O32    O     0.59963   0.42072   0.92236   0.00000  Uiso   1.00
H32    H     0.57269   0.44877   0.86048   0.00000  Uiso   1.00
H33    H     0.48664   0.53638   0.70787   0.00000  Uiso   1.00
O33    O     0.50025   0.52289   0.57107   0.00000  Uiso   1.00
O34    O     0.52942   0.49370   0.57106   0.00000  Uiso   1.00
H34    H     0.54284   0.48002   0.70786   0.00000  Uiso   1.00
H35    H     0.45527   0.56612   0.14025   0.00000  Uiso   1.00
O35    O     0.42726   0.59309   0.07833   0.00000  Uiso   1.00
O36    O     0.42741   0.59323   0.92238   0.00000  Uiso   1.00
H36    H     0.45549   0.56634   0.86050   0.00000  Uiso   1.00
Ni3    Ni    0.51456   0.50802   0.00037   0.00000  Uiso   1.00
Cu1    Cu    0.01116   0.50109   0.50043   0.00000  Uiso   1.00
Cu2    Cu    0.50797   0.00462   0.50044   0.00000  Uiso   1.00
Cu3    Cu    0.51482   0.50828   0.50037   0.00000  Uiso   1.00
Zn1    Zn    0.20856   0.60200   0.00038   0.00000  Uiso   1.00
Zn2    Zn    0.60862   0.20201   0.00041   0.00000  Uiso   1.00
Zn3    Zn    0.41417   0.60560   0.00035   0.00000  Uiso   1.00
Zn4    Zn    0.81377   0.40328   0.00039   0.00000  Uiso   1.00
Zn5    Zn    0.40981   0.80722   0.00037   0.00000  Uiso   1.00
Zn6    Zn    0.61209   0.40757   0.00032   0.00000  Uiso   1.00
loop_
_geom_bond_atom_site_label_1
_geom_bond_atom_site_label_2
_geom_bond_distance
_geom_bond_site_symmetry_2
_ccdc_geom_bond_type
C1     C2      1.431   .     A
C1     C6      1.429   .     A
C1     C11     1.424   .     A
C2     C3      1.429   .     A
C2     C14     1.425   .     A
C3     C4      1.431   .     A
C3     C10     1.424   .     A
C4     C5      1.429   .     A
C4     C7      1.424   .     A
C5     C6      1.431   .     A
C5     C18     1.424   .     A
C6     C15     1.424   .     A
C7     C8      1.388   .     A
C7     H1      1.074   .     S
C8     C9      1.396   .     A
C8     O1      1.396   .     S
C9     C10     1.388   .     A
C9     O2      1.396   .     S
C10    H2      1.074   .     S
C11    C12     1.388   .     A
C11    H3      1.074   .     S
C12    C13     1.396   .     A
C12    O3      1.396   .     S
C13    C14     1.389   .     A
C13    O4      1.397   .     S
C14    H4      1.074   .     S
C15    C16     1.388   .     A
C15    H5      1.074   .     S
C16    C17     1.396   .     A
C16    O5      1.396   .     S
C17    C18     1.388   .     A
C17    O6      1.396   .     S
C18    H6      1.074   .     S
O1     Zn1     1.798   .     S
O2     Zn1     1.798   .     S
O3     Zn5     1.798   .     S
O4     Zn5     1.798   .     S
O5     Zn3     1.798   .     S
O6     Zn3     1.798   .     S
C19    C20     1.431   .     A
C19    C24     1.429   .     A
C19    C29     1.425   .     A
C20    C21     1.428   .     A
C20    C32     1.424   .     A
C21    C22     1.431   .     A
C21    C28     1.424   .     A
C22    C23     1.429   .     A
C22    C25     1.424   .     A
C23    C24     1.431   .     A
C23    C36     1.424   .     A
C24    C33     1.424   .     A
C25    C26     1.388   .     A
C25    H7      1.074   .     S
C26    C27     1.396   .     A
C26    O7      1.396   .     S
C27    C28     1.388   .     A
C27    O8      1.396   .     S
C28    H8      1.074   .     S
C29    C30     1.389   .     A
C29    H9      1.074   .     S
C30    C31     1.396   .     A
C30    O9      1.396   .     S
C31    C32     1.388   .     A
C31    O10     1.396   .     S
C32    H10     1.074   .     S
C33    C34     1.388   .     A
C33    H11     1.074   .     S
C34    C35     1.396   .     A
C34    O11     1.396   .     S
C35    C36     1.388   .     A
C35    O12     1.396   .     S
C36    H12     1.074   .     S
O7     Zn4     1.798   .     S
O8     Zn4     1.798   .     S
O9     Zn2     1.798   .     S
O10    Zn2     1.798   .     S
O11    Zn6     1.798   .     S
O12    Zn6     1.798   .     S
C37    C38     1.406   .     A
C37    C42     1.396   .     A
C37    H13     1.083   .     S
C38    C39     1.427   1_554 A
C38    O13     1.395   .     S
C39    C38     1.427   1_556 A
C39    C40     1.406   .     A
C39    O14     1.395   .     S
C40    C41     1.396   .     A
C40    H14     1.083   .     S
C41    C42     1.360   1_556 A
C41    C44     1.377   .     A
C42    C41     1.360   1_554 A
C42    C43     1.377   .     A
C43    N1      1.360   .     A
C43    N8      1.338   .     A
N1     C44     1.360   1_554 A
N1     Ni1     1.896   1_655 S
C44    N1      1.360   1_556 A
C44    N2      1.338   .     A
N2     C45     1.338   .     A
C45    N3      1.360   1_655 A
C45    C48     1.376   .     A
N3     C45     1.360   1_455 A
N3     C46     1.360   .     A
N3     Ni1     1.896   1_556 S
C46    C47     1.376   .     A
C46    N5      1.338   .     A
C47    C48     1.363   1_455 A
C47    C56     1.399   .     A
C48    C47     1.363   1_655 A
C48    C53     1.399   .     A
N4     C49     1.360   1_554 A
N4     C52     1.360   .     A
N4     Ni1     1.896   .     S
C49    N4      1.360   1_556 A
C49    N5      1.338   .     A
C49    C50     1.377   .     A
C50    C51     1.360   1_556 A
C50    C60     1.396   .     A
C51    C50     1.360   1_554 A
C51    C52     1.377   .     A
C51    C57     1.396   .     A
C52    N7      1.338   .     A
C53    C54     1.406   .     A
C53    H15     1.082   .     S
C54    C55     1.388   1_655 A
C54    O15     1.381   .     S
C55    C54     1.388   1_455 A
C55    C56     1.406   .     A
C55    O16     1.381   .     S
C56    H16     1.082   .     S
C57    C58     1.406   .     A
C57    H17     1.083   .     S
C58    C59     1.427   1_554 A
C58    O17     1.395   .     S
C59    C58     1.427   1_556 A
C59    C60     1.406   .     A
C59    O18     1.395   .     S
C60    H18     1.083   .     S
N6     C61     1.360   .     A
N6     C64     1.360   1_455 A
N6     Ni1     1.896   .     S
C61    N7      1.338   .     A
C61    C62     1.376   .     A
C62    C63     1.363   1_455 A
C62    C68     1.399   .     A
C63    C62     1.363   1_655 A
C63    C64     1.376   .     A
C63    C65     1.399   .     A
C64    N6      1.360   1_655 A
C64    N8      1.338   .     A
C65    C66     1.406   .     A
C65    H19     1.082   .     S
C66    C67     1.388   1_655 A
C66    O19     1.381   .     S
C67    C66     1.388   1_455 A
C67    C68     1.406   .     A
C67    O20     1.381   .     S
C68    H20     1.082   .     S
O13    Zn4     1.802   .     S
O14    Zn4     1.802   1_556 S
O15    Cu1     1.814   1_655 S
O16    Cu1     1.814   .     S
O17    Zn1     1.803   .     S
O18    Zn1     1.802   1_556 S
O19    Cu1     1.814   1_655 S
O20    Cu1     1.814   .     S
Ni1    N1      1.896   1_455 S
Ni1    N3      1.896   1_554 S
C69    C70     1.406   .     A
C69    C74     1.399   .     A
C69    H21     1.082   .     S
C70    C71     1.388   1_545 A
C70    O21     1.381   .     S
C71    C70     1.388   1_565 A
C71    C72     1.406   .     A
C71    O22     1.381   .     S
C72    C73     1.399   .     A
C72    H22     1.082   .     S
C73    C74     1.363   1_565 A
C73    C76     1.376   .     A
C74    C73     1.363   1_545 A
C74    C75     1.376   .     A
C75    N9      1.360   .     A
C75    N16     1.338   .     A
N9     C76     1.360   1_545 A
N9     Ni2     1.896   1_556 S
C76    N9      1.360   1_565 A
C76    N10     1.338   .     A
N10    C77     1.338   .     A
C77    N11     1.360   1_556 A
C77    C80     1.377   .     A
N11    C77     1.360   1_554 A
N11    C78     1.360   .     A
N11    Ni2     1.896   1_565 S
C78    C79     1.377   .     A
C78    N13     1.338   .     A
C79    C80     1.360   1_554 A
C79    C88     1.396   .     A
C80    C79     1.360   1_556 A
C80    C85     1.396   .     A
N12    C81     1.360   1_545 A
N12    C84     1.360   .     A
N12    Ni2     1.896   .     S
C81    N12     1.360   1_565 A
C81    N13     1.338   .     A
C81    C82     1.376   .     A
C82    C83     1.363   1_565 A
C82    C92     1.399   .     A
C83    C82     1.363   1_545 A
C83    C84     1.376   .     A
C83    C89     1.399   .     A
C84    N15     1.338   .     A
C85    C86     1.406   .     A
C85    H23     1.083   .     S
C86    C87     1.427   1_556 A
C86    O23     1.395   .     S
C87    C86     1.427   1_554 A
C87    C88     1.406   .     A
C87    O24     1.395   .     S
C88    H24     1.083   .     S
C89    C90     1.406   .     A
C89    H25     1.082   .     S
C90    C91     1.388   1_545 A
C90    O25     1.381   .     S
C91    C90     1.388   1_565 A
C91    C92     1.406   .     A
C91    O26     1.381   .     S
C92    H26     1.082   .     S
N14    C93     1.360   .     A
N14    C96     1.360   1_554 A
N14    Ni2     1.896   .     S
C93    N15     1.338   .     A
C93    C94     1.377   .     A
C94    C95     1.360   1_554 A
C94    C100    1.396   .     A
C95    C94     1.360   1_556 A
C95    C96     1.377   .     A
C95    C97     1.396   .     A
C96    N14     1.360   1_556 A
C96    N16     1.338   .     A
C97    C98     1.406   .     A
C97    H27     1.083   .     S
C98    C99     1.427   1_556 A
C98    O27     1.395   .     S
C99    C98     1.427   1_554 A
C99    C100    1.406   .     A
C99    O28     1.395   .     S
C100   H28     1.083   .     S
O21    Cu2     1.814   .     S
O22    Cu2     1.814   1_565 S
O23    Zn5     1.802   1_556 S
O24    Zn5     1.802   .     S
O25    Cu2     1.814   .     S
O26    Cu2     1.814   1_565 S
O27    Zn2     1.802   1_556 S
O28    Zn2     1.803   .     S
Ni2    N11     1.896   1_545 S
Ni2    N9      1.896   1_554 S
C101   C102    1.406   .     A
C101   C106    1.399   .     A
C101   H29     1.082   .     S
C102   C103    1.388   .     A
C102   O29     1.381   .     S
C103   C104    1.406   .     A
C103   O30     1.381   .     S
C104   C105    1.399   .     A
C104   H30     1.082   .     S
C105   C106    1.363   .     A
C105   C108    1.376   .     A
C106   C107    1.376   .     A
C107   N17     1.360   .     A
C107   N24     1.338   .     A
N17    C108    1.360   .     A
N17    Ni3     1.896   .     S
C108   N18     1.338   .     A
N18    C109    1.338   .     A
C109   N19     1.360   .     A
C109   C112    1.377   .     A
N19    C110    1.360   1_554 A
N19    Ni3     1.896   .     S
C110   N19     1.360   1_556 A
C110   C111    1.377   .     A
C110   N21     1.338   .     A
C111   C112    1.360   1_556 A
C111   C120    1.396   .     A
C112   C111    1.360   1_554 A
C112   C117    1.396   .     A
N20    C113    1.360   .     A
N20    C116    1.360   .     A
N20    Ni3     1.896   1_556 S
C113   N21     1.338   .     A
C113   C114    1.376   .     A
C114   C115    1.363   .     A
C114   C124    1.399   .     A
C115   C116    1.376   .     A
C115   C121    1.399   .     A
C116   N23     1.338   .     A
C117   C118    1.406   .     A
C117   H31     1.083   .     S
C118   C119    1.427   1_554 A
C118   O31     1.395   .     S
C119   C118    1.427   1_556 A
C119   C120    1.406   .     A
C119   O32     1.395   .     S
C120   H32     1.083   .     S
C121   C122    1.406   .     A
C121   H33     1.082   .     S
C122   C123    1.388   .     A
C122   O33     1.381   .     S
C123   C124    1.406   .     A
C123   O34     1.381   .     S
C124   H34     1.082   .     S
N22    C125    1.360   1_554 A
N22    C128    1.360   .     A
N22    Ni3     1.896   .     S
C125   N22     1.360   1_556 A
C125   N23     1.338   .     A
C125   C126    1.377   .     A
C126   C127    1.360   1_556 A
C126   C132    1.396   .     A
C127   C126    1.360   1_554 A
C127   C128    1.377   .     A
C127   C129    1.396   .     A
C128   N24     1.338   .     A
C129   C130    1.406   .     A
C129   H35     1.083   .     S
C130   C131    1.427   1_554 A
C130   O35     1.395   .     S
C131   C130    1.427   1_556 A
C131   C132    1.406   .     A
C131   O36     1.395   .     S
C132   H36     1.083   .     S
O29    Cu3     1.814   .     S
O30    Cu3     1.814   .     S
O31    Zn6     1.803   .     S
O32    Zn6     1.803   1_556 S
O33    Cu3     1.814   .     S
O34    Cu3     1.814   .     S
O35    Zn3     1.803   .     S
O36    Zn3     1.802   1_556 S
Ni3    N20     1.896   1_554 S
Cu1    O15     1.814   1_455 S
Cu1    O19     1.814   1_455 S
Cu2    O22     1.814   1_545 S
Cu2    O26     1.814   1_545 S
Zn1    O18     1.802   1_554 S
Zn2    O27     1.802   1_554 S
Zn3    O36     1.802   1_554 S
Zn4    O14     1.802   1_554 S
Zn5    O23     1.802   1_554 S
Zn6    O32     1.803   1_554 S
