data_tfz-B_O-PcMN_O-Zntet
_audit_creation_date              2021-11-06
_audit_creation_method            'Materials Studio'
_symmetry_space_group_name_H-M    'P1'
_symmetry_Int_Tables_number       1
_symmetry_cell_setting            triclinic
loop_
_symmetry_equiv_pos_as_xyz
  x,y,z
_cell_length_a                    51.4716
_cell_length_b                    51.4711
_cell_length_c                    22.7689
_cell_angle_alpha                 90.0100
_cell_angle_beta                  89.9768
_cell_angle_gamma                 120.5688
loop_
_atom_site_label
_atom_site_type_symbol
_atom_site_fract_x
_atom_site_fract_y
_atom_site_fract_z
_atom_site_U_iso_or_equiv
_atom_site_adp_type
_atom_site_occupancy
C1     C     0.33565   0.70235   0.00494   0.00000  Uiso   1.00
C2     C     0.30836   0.67482   0.00491   0.00000  Uiso   1.00
C3     C     0.30845   0.64739   0.00491   0.00000  Uiso   1.00
C4     C     0.33583   0.64780   0.00495   0.00000  Uiso   1.00
C5     C     0.36342   0.67563   0.00497   0.00000  Uiso   1.00
C6     C     0.36333   0.70276   0.00496   0.00000  Uiso   1.00
O1     O     0.33589   0.72959   0.00495   0.00000  Uiso   1.00
O2     O     0.28089   0.67409   0.00490   0.00000  Uiso   1.00
O3     O     0.28105   0.62008   0.00489   0.00000  Uiso   1.00
O4     O     0.33625   0.62090   0.00497   0.00000  Uiso   1.00
O5     O     0.39057   0.67570   0.00501   0.00000  Uiso   1.00
O6     O     0.39039   0.73040   0.00498   0.00000  Uiso   1.00
C7     C     0.66696   0.31622   0.00528   0.00000  Uiso   1.00
C8     C     0.69450   0.34351   0.00531   0.00000  Uiso   1.00
C9     C     0.69491   0.37119   0.00531   0.00000  Uiso   1.00
C10    C     0.66778   0.37128   0.00528   0.00000  Uiso   1.00
C11    C     0.63995   0.34369   0.00525   0.00000  Uiso   1.00
C12    C     0.63954   0.31631   0.00526   0.00000  Uiso   1.00
O7     O     0.66624   0.28874   0.00527   0.00000  Uiso   1.00
O8     O     0.72173   0.34374   0.00533   0.00000  Uiso   1.00
O9     O     0.72255   0.39825   0.00534   0.00000  Uiso   1.00
O10    O     0.66785   0.39843   0.00526   0.00000  Uiso   1.00
O11    O     0.61304   0.34411   0.00521   0.00000  Uiso   1.00
O12    O     0.61223   0.28891   0.00523   0.00000  Uiso   1.00
C13    C     0.03363   0.52359   0.23509   0.00000  Uiso   1.00
C14    C     0.01772   0.51582   0.28878   0.00000  Uiso   1.00
C15    C     0.98536   0.50005   0.28880   0.00000  Uiso   1.00
C16    C     0.96946   0.49231   0.23514   0.00000  Uiso   1.00
C17    C     0.98622   0.50049   0.18330   0.00000  Uiso   1.00
C18    C     0.01687   0.51543   0.18328   0.00000  Uiso   1.00
C19    C     0.02563   0.51973   0.12526   0.00000  Uiso   1.00
N1     N     0.00154   0.50799   0.08834   0.00000  Uiso   1.00
C20    C     0.97745   0.49623   0.12530   0.00000  Uiso   1.00
N2     N     0.94856   0.48216   0.10832   0.00000  Uiso   1.00
C21    C     0.93982   0.47792   0.05207   0.00000  Uiso   1.00
N3     N     0.95879   0.48717   0.00515   0.00000  Uiso   1.00
C22    C     0.93982   0.47793   0.95827   0.00000  Uiso   1.00
C23    C     0.91003   0.46341   0.97536   0.00000  Uiso   1.00
C24    C     0.91003   0.46341   0.03502   0.00000  Uiso   1.00
N4     N     0.00154   0.50801   0.92189   0.00000  Uiso   1.00
C25    C     0.97745   0.49626   0.88497   0.00000  Uiso   1.00
N5     N     0.94855   0.48218   0.90200   0.00000  Uiso   1.00
C26    C     0.98621   0.50053   0.82695   0.00000  Uiso   1.00
C27    C     0.01686   0.51547   0.82693   0.00000  Uiso   1.00
C28    C     0.02562   0.51976   0.88493   0.00000  Uiso   1.00
C29    C     0.88340   0.45041   0.06764   0.00000  Uiso   1.00
C30    C     0.85582   0.43693   0.03668   0.00000  Uiso   1.00
C31    C     0.85582   0.43694   0.97380   0.00000  Uiso   1.00
C32    C     0.88340   0.45042   0.94279   0.00000  Uiso   1.00
C33    C     0.03362   0.52363   0.77509   0.00000  Uiso   1.00
C34    C     0.01771   0.51586   0.72143   0.00000  Uiso   1.00
C35    C     0.98535   0.50009   0.72145   0.00000  Uiso   1.00
C36    C     0.96945   0.49235   0.77513   0.00000  Uiso   1.00
N6     N     0.04429   0.52885   0.00508   0.00000  Uiso   1.00
C37    C     0.06326   0.53815   0.95816   0.00000  Uiso   1.00
N7     N     0.05452   0.53389   0.90191   0.00000  Uiso   1.00
C38    C     0.09305   0.55278   0.97520   0.00000  Uiso   1.00
C39    C     0.09306   0.55278   0.03486   0.00000  Uiso   1.00
C40    C     0.06326   0.53815   0.05196   0.00000  Uiso   1.00
C41    C     0.11969   0.56595   0.06743   0.00000  Uiso   1.00
C42    C     0.14727   0.57964   0.03642   0.00000  Uiso   1.00
C43    C     0.14727   0.57964   0.97354   0.00000  Uiso   1.00
C44    C     0.11968   0.56595   0.94258   0.00000  Uiso   1.00
N8     N     0.05453   0.53387   0.10823   0.00000  Uiso   1.00
H1     H     0.05806   0.53550   0.23379   0.00000  Uiso   1.00
H2     H     0.94502   0.48041   0.23387   0.00000  Uiso   1.00
H3     H     0.88407   0.45072   0.11521   0.00000  Uiso   1.00
H4     H     0.88406   0.45074   0.89522   0.00000  Uiso   1.00
H5     H     0.05805   0.53554   0.77635   0.00000  Uiso   1.00
H6     H     0.94501   0.48044   0.77644   0.00000  Uiso   1.00
H7     H     0.11903   0.56565   0.11501   0.00000  Uiso   1.00
H8     H     0.11902   0.56566   0.89501   0.00000  Uiso   1.00
C45    C     0.17478   0.59336   0.06688   0.00000  Uiso   1.00
C46    C     0.20201   0.60699   0.03595   0.00000  Uiso   1.00
C47    C     0.20201   0.60699   0.97393   0.00000  Uiso   1.00
C48    C     0.17478   0.59336   0.94304   0.00000  Uiso   1.00
C49    C     0.03333   0.52341   0.34248   0.00000  Uiso   1.00
C50    C     0.01704   0.51546   0.39499   0.00000  Uiso   1.00
C51    C     0.98604   0.50036   0.39501   0.00000  Uiso   1.00
C52    C     0.96975   0.49244   0.34252   0.00000  Uiso   1.00
C53    C     0.82832   0.42346   0.06718   0.00000  Uiso   1.00
C54    C     0.80109   0.41010   0.03630   0.00000  Uiso   1.00
C55    C     0.80109   0.41010   0.97428   0.00000  Uiso   1.00
C56    C     0.82832   0.42346   0.94335   0.00000  Uiso   1.00
C57    C     0.03332   0.52345   0.66771   0.00000  Uiso   1.00
C58    C     0.01704   0.51550   0.61522   0.00000  Uiso   1.00
C59    C     0.98603   0.50039   0.61524   0.00000  Uiso   1.00
C60    C     0.96975   0.49248   0.66775   0.00000  Uiso   1.00
H9     H     0.17516   0.59357   0.11446   0.00000  Uiso   1.00
O13    O     0.22943   0.62081   0.06604   0.00000  Uiso   1.00
O14    O     0.22943   0.62081   0.94379   0.00000  Uiso   1.00
H10    H     0.17515   0.59357   0.89545   0.00000  Uiso   1.00
H11    H     0.05776   0.53531   0.34363   0.00000  Uiso   1.00
O15    O     0.03076   0.52213   0.44945   0.00000  Uiso   1.00
O16    O     0.97232   0.49367   0.44948   0.00000  Uiso   1.00
H12    H     0.94532   0.48053   0.34371   0.00000  Uiso   1.00
H13    H     0.82794   0.42326   0.11477   0.00000  Uiso   1.00
O17    O     0.77367   0.39659   0.06643   0.00000  Uiso   1.00
O18    O     0.77367   0.39659   0.94418   0.00000  Uiso   1.00
H14    H     0.82794   0.42327   0.89576   0.00000  Uiso   1.00
H15    H     0.05775   0.53535   0.66652   0.00000  Uiso   1.00
O19    O     0.03076   0.52216   0.56074   0.00000  Uiso   1.00
O20    O     0.97232   0.49369   0.56078   0.00000  Uiso   1.00
H16    H     0.94531   0.48057   0.66659   0.00000  Uiso   1.00
Ni1    Ni    0.00154   0.50800   0.00511   0.00000  Uiso   1.00
C61    C     0.51577   0.04147   0.23510   0.00000  Uiso   1.00
C62    C     0.50800   0.02556   0.28878   0.00000  Uiso   1.00
C63    C     0.49223   0.99320   0.28878   0.00000  Uiso   1.00
C64    C     0.48449   0.97729   0.23511   0.00000  Uiso   1.00
C65    C     0.49266   0.99406   0.18328   0.00000  Uiso   1.00
C66    C     0.50760   0.02471   0.18328   0.00000  Uiso   1.00
C67    C     0.51189   0.03347   0.12527   0.00000  Uiso   1.00
N9     N     0.50015   0.00939   0.08833   0.00000  Uiso   1.00
C68    C     0.48839   0.98529   0.12527   0.00000  Uiso   1.00
N10    N     0.47431   0.95640   0.10825   0.00000  Uiso   1.00
C69    C     0.47007   0.94767   0.05199   0.00000  Uiso   1.00
N11    N     0.47932   0.96665   0.00510   0.00000  Uiso   1.00
C70    C     0.47007   0.94768   0.95819   0.00000  Uiso   1.00
C71    C     0.45555   0.91789   0.97525   0.00000  Uiso   1.00
C72    C     0.45555   0.91788   0.03491   0.00000  Uiso   1.00
N12    N     0.50014   0.00940   0.92188   0.00000  Uiso   1.00
C73    C     0.48839   0.98531   0.88493   0.00000  Uiso   1.00
N13    N     0.47432   0.95642   0.90193   0.00000  Uiso   1.00
C74    C     0.49265   0.99408   0.82693   0.00000  Uiso   1.00
C75    C     0.50760   0.02473   0.82693   0.00000  Uiso   1.00
C76    C     0.51189   0.03349   0.88494   0.00000  Uiso   1.00
C77    C     0.44254   0.89125   0.06749   0.00000  Uiso   1.00
C78    C     0.42907   0.86367   0.03649   0.00000  Uiso   1.00
C79    C     0.42908   0.86368   0.97361   0.00000  Uiso   1.00
C80    C     0.44256   0.89126   0.94264   0.00000  Uiso   1.00
C81    C     0.51575   0.04149   0.77510   0.00000  Uiso   1.00
C82    C     0.50798   0.02558   0.72143   0.00000  Uiso   1.00
C83    C     0.49221   0.99322   0.72143   0.00000  Uiso   1.00
C84    C     0.48447   0.97732   0.77510   0.00000  Uiso   1.00
N14    N     0.52100   0.05214   0.00511   0.00000  Uiso   1.00
C85    C     0.53030   0.07112   0.95822   0.00000  Uiso   1.00
N15    N     0.52603   0.06239   0.90195   0.00000  Uiso   1.00
C86    C     0.54493   0.10091   0.97530   0.00000  Uiso   1.00
C87    C     0.54492   0.10091   0.03496   0.00000  Uiso   1.00
C88    C     0.53029   0.07111   0.05202   0.00000  Uiso   1.00
C89    C     0.55809   0.12753   0.06757   0.00000  Uiso   1.00
C90    C     0.57178   0.15512   0.03660   0.00000  Uiso   1.00
C91    C     0.57179   0.15513   0.97372   0.00000  Uiso   1.00
C92    C     0.55811   0.12755   0.94272   0.00000  Uiso   1.00
N16    N     0.52602   0.06237   0.10827   0.00000  Uiso   1.00
H17    H     0.52767   0.06590   0.23382   0.00000  Uiso   1.00
H18    H     0.47258   0.95286   0.23382   0.00000  Uiso   1.00
H19    H     0.44285   0.89190   0.11506   0.00000  Uiso   1.00
H20    H     0.44289   0.89193   0.89507   0.00000  Uiso   1.00
H21    H     0.52766   0.06593   0.77638   0.00000  Uiso   1.00
H22    H     0.47257   0.95288   0.77639   0.00000  Uiso   1.00
H23    H     0.55778   0.12686   0.11514   0.00000  Uiso   1.00
H24    H     0.55782   0.12690   0.89514   0.00000  Uiso   1.00
C93    C     0.58549   0.18262   0.06709   0.00000  Uiso   1.00
C94    C     0.59913   0.20986   0.03620   0.00000  Uiso   1.00
C95    C     0.59915   0.20987   0.97418   0.00000  Uiso   1.00
C96    C     0.58552   0.18265   0.94326   0.00000  Uiso   1.00
C97    C     0.51559   0.04117   0.34248   0.00000  Uiso   1.00
C98    C     0.50764   0.02489   0.39498   0.00000  Uiso   1.00
C99    C     0.49254   0.99388   0.39499   0.00000  Uiso   1.00
C100   C     0.48461   0.97759   0.34249   0.00000  Uiso   1.00
C101   C     0.41559   0.83616   0.06695   0.00000  Uiso   1.00
C102   C     0.40223   0.80894   0.03603   0.00000  Uiso   1.00
C103   C     0.40225   0.80895   0.97401   0.00000  Uiso   1.00
C104   C     0.41562   0.83618   0.94312   0.00000  Uiso   1.00
C105   C     0.51557   0.04119   0.66771   0.00000  Uiso   1.00
C106   C     0.50762   0.02490   0.61522   0.00000  Uiso   1.00
C107   C     0.49252   0.99390   0.61522   0.00000  Uiso   1.00
C108   C     0.48460   0.97761   0.66772   0.00000  Uiso   1.00
H25    H     0.58569   0.18299   0.11468   0.00000  Uiso   1.00
O21    O     0.61294   0.23728   0.06634   0.00000  Uiso   1.00
O22    O     0.61298   0.23730   0.94409   0.00000  Uiso   1.00
H26    H     0.58574   0.18303   0.89567   0.00000  Uiso   1.00
H27    H     0.52749   0.06560   0.34365   0.00000  Uiso   1.00
O23    O     0.51430   0.03861   0.44945   0.00000  Uiso   1.00
O24    O     0.48584   0.98017   0.44946   0.00000  Uiso   1.00
H28    H     0.47271   0.95316   0.34367   0.00000  Uiso   1.00
H29    H     0.41538   0.83578   0.11454   0.00000  Uiso   1.00
O25    O     0.38871   0.78152   0.06612   0.00000  Uiso   1.00
O26    O     0.38875   0.78154   0.94388   0.00000  Uiso   1.00
H30    H     0.41544   0.83581   0.89553   0.00000  Uiso   1.00
H31    H     0.52747   0.06562   0.66653   0.00000  Uiso   1.00
O27    O     0.51429   0.03861   0.56074   0.00000  Uiso   1.00
O28    O     0.48582   0.98017   0.56076   0.00000  Uiso   1.00
H32    H     0.47269   0.95318   0.66656   0.00000  Uiso   1.00
Ni2    Ni    0.50015   0.00939   0.00510   0.00000  Uiso   1.00
C109   C     0.51888   0.49493   0.23510   0.00000  Uiso   1.00
C110   C     0.51100   0.50283   0.28879   0.00000  Uiso   1.00
C111   C     0.49495   0.51887   0.28881   0.00000  Uiso   1.00
C112   C     0.48705   0.52675   0.23514   0.00000  Uiso   1.00
C113   C     0.49536   0.51844   0.18331   0.00000  Uiso   1.00
C114   C     0.51056   0.50324   0.18329   0.00000  Uiso   1.00
C115   C     0.51490   0.49888   0.12528   0.00000  Uiso   1.00
N17    N     0.50296   0.51082   0.08835   0.00000  Uiso   1.00
C116   C     0.49101   0.52277   0.12530   0.00000  Uiso   1.00
N18    N     0.47665   0.53707   0.10829   0.00000  Uiso   1.00
C117   C     0.47232   0.54139   0.05203   0.00000  Uiso   1.00
N19    N     0.48177   0.53201   0.00513   0.00000  Uiso   1.00
C118   C     0.47234   0.54139   0.95823   0.00000  Uiso   1.00
C119   C     0.45751   0.55611   0.97530   0.00000  Uiso   1.00
C120   C     0.45749   0.55610   0.03496   0.00000  Uiso   1.00
N20    N     0.50298   0.51083   0.92189   0.00000  Uiso   1.00
C121   C     0.49105   0.52277   0.88496   0.00000  Uiso   1.00
N21    N     0.47669   0.53707   0.90197   0.00000  Uiso   1.00
C122   C     0.49541   0.51844   0.82695   0.00000  Uiso   1.00
C123   C     0.51061   0.50324   0.82694   0.00000  Uiso   1.00
C124   C     0.51494   0.49889   0.88495   0.00000  Uiso   1.00
C125   C     0.44419   0.56922   0.06754   0.00000  Uiso   1.00
C126   C     0.43043   0.58279   0.03654   0.00000  Uiso   1.00
C127   C     0.43045   0.58279   0.97366   0.00000  Uiso   1.00
C128   C     0.44423   0.56922   0.94269   0.00000  Uiso   1.00
C129   C     0.51892   0.49494   0.77510   0.00000  Uiso   1.00
C130   C     0.51104   0.50283   0.72143   0.00000  Uiso   1.00
C131   C     0.49500   0.51888   0.72146   0.00000  Uiso   1.00
C132   C     0.48710   0.52676   0.77514   0.00000  Uiso   1.00
N22    N     0.52415   0.48962   0.00511   0.00000  Uiso   1.00
C133   C     0.53354   0.48019   0.95821   0.00000  Uiso   1.00
N23    N     0.52923   0.48453   0.90195   0.00000  Uiso   1.00
C134   C     0.54826   0.46536   0.97528   0.00000  Uiso   1.00
C135   C     0.54824   0.46536   0.03494   0.00000  Uiso   1.00
C136   C     0.53352   0.48018   0.05201   0.00000  Uiso   1.00
C137   C     0.56135   0.45207   0.06755   0.00000  Uiso   1.00
C138   C     0.57493   0.43829   0.03658   0.00000  Uiso   1.00
C139   C     0.57495   0.43829   0.97370   0.00000  Uiso   1.00
C140   C     0.56138   0.45207   0.94270   0.00000  Uiso   1.00
N24    N     0.52920   0.48453   0.10827   0.00000  Uiso   1.00
H33    H     0.53099   0.48282   0.23380   0.00000  Uiso   1.00
H34    H     0.47494   0.53886   0.23388   0.00000  Uiso   1.00
H35    H     0.44450   0.56888   0.11512   0.00000  Uiso   1.00
H36    H     0.44456   0.56888   0.89512   0.00000  Uiso   1.00
H37    H     0.53103   0.48282   0.77636   0.00000  Uiso   1.00
H38    H     0.47498   0.53887   0.77644   0.00000  Uiso   1.00
H39    H     0.56099   0.45239   0.11512   0.00000  Uiso   1.00
H40    H     0.56106   0.45239   0.89512   0.00000  Uiso   1.00
C141   C     0.58843   0.42453   0.06707   0.00000  Uiso   1.00
C142   C     0.60180   0.41090   0.03618   0.00000  Uiso   1.00
C143   C     0.60182   0.41090   0.97416   0.00000  Uiso   1.00
C144   C     0.58847   0.42454   0.94324   0.00000  Uiso   1.00
C145   C     0.51875   0.49510   0.34248   0.00000  Uiso   1.00
C146   C     0.51069   0.50318   0.39499   0.00000  Uiso   1.00
C147   C     0.49531   0.51855   0.39502   0.00000  Uiso   1.00
C148   C     0.48723   0.52662   0.34253   0.00000  Uiso   1.00
C149   C     0.41665   0.59630   0.06700   0.00000  Uiso   1.00
C150   C     0.40303   0.60966   0.03608   0.00000  Uiso   1.00
C151   C     0.40305   0.60966   0.97406   0.00000  Uiso   1.00
C152   C     0.41670   0.59630   0.94317   0.00000  Uiso   1.00
C153   C     0.51879   0.49510   0.66771   0.00000  Uiso   1.00
C154   C     0.51071   0.50319   0.61522   0.00000  Uiso   1.00
C155   C     0.49534   0.51856   0.61525   0.00000  Uiso   1.00
C156   C     0.48726   0.52662   0.66776   0.00000  Uiso   1.00
H41    H     0.58859   0.42433   0.11466   0.00000  Uiso   1.00
O29    O     0.61522   0.39715   0.06632   0.00000  Uiso   1.00
O30    O     0.61527   0.39716   0.94406   0.00000  Uiso   1.00
H42    H     0.58867   0.42434   0.89565   0.00000  Uiso   1.00
H43    H     0.53086   0.48298   0.34363   0.00000  Uiso   1.00
O31    O     0.51750   0.49639   0.44944   0.00000  Uiso   1.00
O32    O     0.48853   0.52537   0.44950   0.00000  Uiso   1.00
H44    H     0.47511   0.53874   0.34373   0.00000  Uiso   1.00
H45    H     0.41644   0.59648   0.11459   0.00000  Uiso   1.00
O33    O     0.38927   0.62310   0.06617   0.00000  Uiso   1.00
O34    O     0.38932   0.62310   0.94392   0.00000  Uiso   1.00
H46    H     0.41652   0.59648   0.89558   0.00000  Uiso   1.00
H47    H     0.53090   0.48299   0.66651   0.00000  Uiso   1.00
O35    O     0.51752   0.49639   0.56074   0.00000  Uiso   1.00
O36    O     0.48854   0.52537   0.56080   0.00000  Uiso   1.00
H48    H     0.47514   0.53874   0.66661   0.00000  Uiso   1.00
Ni3    Ni    0.50297   0.51082   0.00512   0.00000  Uiso   1.00
Cu1    Cu    0.00154   0.50791   0.50511   0.00000  Uiso   1.00
Cu2    Cu    0.50006   0.00939   0.50510   0.00000  Uiso   1.00
Cu3    Cu    0.50302   0.51087   0.50512   0.00000  Uiso   1.00
Zn1    Zn    0.25520   0.63393   0.00490   0.00000  Uiso   1.00
Zn2    Zn    0.62608   0.26306   0.00523   0.00000  Uiso   1.00
Zn3    Zn    0.37635   0.63570   0.00502   0.00000  Uiso   1.00
Zn4    Zn    0.74790   0.38381   0.00532   0.00000  Uiso   1.00
Zn5    Zn    0.37595   0.75576   0.00498   0.00000  Uiso   1.00
Zn6    Zn    0.62785   0.38421   0.00521   0.00000  Uiso   1.00
loop_
_geom_bond_atom_site_label_1
_geom_bond_atom_site_label_2
_geom_bond_distance
_geom_bond_site_symmetry_2
_ccdc_geom_bond_type
C1     C2      1.399   .     A
C1     C6      1.414   .     A
C1     O1      1.396   .     S
C2     C3      1.414   .     A
C2     O2      1.396   .     S
C3     C4      1.399   .     A
C3     O3      1.396   .     S
C4     C5      1.414   .     A
C4     O4      1.396   .     S
C5     C6      1.399   .     A
C5     O5      1.396   .     S
C6     O6      1.396   .     S
O1     Zn5     1.800   .     S
O2     Zn1     1.800   .     S
O3     Zn1     1.801   .     S
O4     Zn3     1.800   .     S
O5     Zn3     1.800   .     S
O6     Zn5     1.801   .     S
C7     C8      1.399   .     A
C7     C12     1.414   .     A
C7     O7      1.396   .     S
C8     C9      1.414   .     A
C8     O8      1.396   .     S
C9     C10     1.399   .     A
C9     O9      1.396   .     S
C10    C11     1.414   .     A
C10    O10     1.396   .     S
C11    C12     1.399   .     A
C11    O11     1.396   .     S
C12    O12     1.396   .     S
O7     Zn2     1.800   .     S
O8     Zn4     1.800   .     S
O9     Zn4     1.801   .     S
O10    Zn6     1.800   .     S
O11    Zn6     1.800   .     S
O12    Zn2     1.801   .     S
C13    C14     1.411   .     A
C13    C18     1.394   .     A
C13    H1      1.084   .     S
C14    C15     1.435   1_455 A
C14    C49     1.405   .     A
C15    C14     1.435   1_655 A
C15    C16     1.411   .     A
C15    C52     1.405   .     A
C16    C17     1.394   .     A
C16    H2      1.084   .     S
C17    C18     1.359   1_655 A
C17    C20     1.377   .     A
C18    C17     1.359   1_455 A
C18    C19     1.377   .     A
C19    N1      1.359   .     A
C19    N8      1.338   .     A
N1     C20     1.359   1_455 A
N1     Ni1     1.895   .     S
C20    N1      1.359   1_655 A
C20    N2      1.338   .     A
N2     C21     1.338   .     A
C21    N3      1.359   .     A
C21    C24     1.377   .     A
N3     C22     1.359   1_554 A
N3     Ni1     1.895   1_655 S
C22    N3      1.359   1_556 A
C22    C23     1.377   .     A
C22    N5      1.338   .     A
C23    C24     1.358   1_556 A
C23    C32     1.394   .     A
C24    C23     1.358   1_554 A
C24    C29     1.394   .     A
N4     C25     1.359   1_455 A
N4     C28     1.359   .     A
N4     Ni1     1.895   1_556 S
C25    N4      1.359   1_655 A
C25    N5      1.338   .     A
C25    C26     1.377   .     A
C26    C27     1.359   1_655 A
C26    C36     1.394   .     A
C27    C26     1.359   1_455 A
C27    C28     1.377   .     A
C27    C33     1.394   .     A
C28    N7      1.338   .     A
C29    C30     1.412   .     A
C29    H3      1.084   .     S
C30    C31     1.432   1_554 A
C30    C53     1.403   .     A
C31    C30     1.432   1_556 A
C31    C32     1.412   .     A
C31    C56     1.403   .     A
C32    H4      1.084   .     S
C33    C34     1.411   .     A
C33    H5      1.084   .     S
C34    C35     1.435   1_455 A
C34    C57     1.405   .     A
C35    C34     1.435   1_655 A
C35    C36     1.411   .     A
C35    C60     1.405   .     A
C36    H6      1.084   .     S
N6     C37     1.359   1_554 A
N6     C40     1.359   .     A
N6     Ni1     1.895   .     S
C37    N6      1.359   1_556 A
C37    N7      1.338   .     A
C37    C38     1.377   .     A
C38    C39     1.358   1_556 A
C38    C44     1.394   .     A
C39    C38     1.358   1_554 A
C39    C40     1.377   .     A
C39    C41     1.394   .     A
C40    N8      1.338   .     A
C41    C42     1.412   .     A
C41    H7      1.084   .     S
C42    C43     1.432   1_554 A
C42    C45     1.403   .     A
C43    C42     1.432   1_556 A
C43    C44     1.412   .     A
C43    C48     1.403   .     A
C44    H8      1.084   .     S
C45    C46     1.397   .     A
C45    H9      1.084   .     S
C46    C47     1.412   1_554 A
C46    O13     1.395   .     S
C47    C46     1.412   1_556 A
C47    C48     1.397   .     A
C47    O14     1.395   .     S
C48    H10     1.084   .     S
C49    C50     1.396   .     A
C49    H11     1.083   .     S
C50    C51     1.374   1_455 A
C50    O15     1.381   .     S
C51    C50     1.374   1_655 A
C51    C52     1.396   .     A
C51    O16     1.381   .     S
C52    H12     1.083   .     S
C53    C54     1.397   .     A
C53    H13     1.084   .     S
C54    C55     1.412   1_554 A
C54    O17     1.395   .     S
C55    C54     1.412   1_556 A
C55    C56     1.397   .     A
C55    O18     1.395   .     S
C56    H14     1.084   .     S
C57    C58     1.396   .     A
C57    H15     1.083   .     S
C58    C59     1.374   1_455 A
C58    O19     1.381   .     S
C59    C58     1.374   1_655 A
C59    C60     1.396   .     A
C59    O20     1.381   .     S
C60    H16     1.083   .     S
O13    Zn1     1.800   .     S
O14    Zn1     1.800   1_556 S
O15    Cu1     1.812   .     S
O16    Cu1     1.812   1_655 S
O17    Zn4     1.800   .     S
O18    Zn4     1.800   1_556 S
O19    Cu1     1.812   .     S
O20    Cu1     1.812   1_655 S
Ni1    N3      1.895   1_455 S
Ni1    N4      1.895   1_554 S
C61    C62     1.411   .     A
C61    C66     1.394   .     A
C61    H17     1.084   .     S
C62    C63     1.435   1_545 A
C62    C97     1.405   .     A
C63    C62     1.435   1_565 A
C63    C64     1.411   .     A
C63    C100    1.405   .     A
C64    C65     1.394   .     A
C64    H18     1.084   .     S
C65    C66     1.359   1_565 A
C65    C68     1.377   .     A
C66    C65     1.359   1_545 A
C66    C67     1.377   .     A
C67    N9      1.359   .     A
C67    N16     1.338   .     A
N9     C68     1.359   1_545 A
N9     Ni2     1.895   .     S
C68    N9      1.359   1_565 A
C68    N10     1.338   .     A
N10    C69     1.338   .     A
C69    N11     1.359   .     A
C69    C72     1.377   .     A
N11    C70     1.359   1_554 A
N11    Ni2     1.895   1_565 S
C70    N11     1.359   1_556 A
C70    C71     1.377   .     A
C70    N13     1.338   .     A
C71    C72     1.358   1_556 A
C71    C80     1.394   .     A
C72    C71     1.358   1_554 A
C72    C77     1.394   .     A
N12    C73     1.359   1_545 A
N12    C76     1.359   .     A
N12    Ni2     1.895   1_556 S
C73    N12     1.359   1_565 A
C73    N13     1.338   .     A
C73    C74     1.377   .     A
C74    C75     1.359   1_565 A
C74    C84     1.394   .     A
C75    C74     1.359   1_545 A
C75    C76     1.377   .     A
C75    C81     1.395   .     A
C76    N15     1.338   .     A
C77    C78     1.412   .     A
C77    H19     1.084   .     S
C78    C79     1.432   1_554 A
C78    C101    1.403   .     A
C79    C78     1.432   1_556 A
C79    C80     1.411   .     A
C79    C104    1.403   .     A
C80    H20     1.084   .     S
C81    C82     1.411   .     A
C81    H21     1.084   .     S
C82    C83     1.435   1_545 A
C82    C105    1.405   .     A
C83    C82     1.435   1_565 A
C83    C84     1.411   .     A
C83    C108    1.405   .     A
C84    H22     1.084   .     S
N14    C85     1.359   1_554 A
N14    C88     1.359   .     A
N14    Ni2     1.895   .     S
C85    N14     1.359   1_556 A
C85    N15     1.338   .     A
C85    C86     1.377   .     A
C86    C87     1.358   1_556 A
C86    C92     1.394   .     A
C87    C86     1.358   1_554 A
C87    C88     1.377   .     A
C87    C89     1.394   .     A
C88    N16     1.338   .     A
C89    C90     1.411   .     A
C89    H23     1.084   .     S
C90    C91     1.432   1_554 A
C90    C93     1.403   .     A
C91    C90     1.432   1_556 A
C91    C92     1.412   .     A
C91    C96     1.403   .     A
C92    H24     1.084   .     S
C93    C94     1.397   .     A
C93    H25     1.084   .     S
C94    C95     1.412   1_554 A
C94    O21     1.395   .     S
C95    C94     1.412   1_556 A
C95    C96     1.397   .     A
C95    O22     1.395   .     S
C96    H26     1.084   .     S
C97    C98     1.396   .     A
C97    H27     1.083   .     S
C98    C99     1.374   1_545 A
C98    O23     1.381   .     S
C99    C98     1.374   1_565 A
C99    C100    1.397   .     A
C99    O24     1.381   .     S
C100   H28     1.083   .     S
C101   C102    1.397   .     A
C101   H29     1.084   .     S
C102   C103    1.412   1_554 A
C102   O25     1.395   .     S
C103   C102    1.412   1_556 A
C103   C104    1.397   .     A
C103   O26     1.395   .     S
C104   H30     1.084   .     S
C105   C106    1.397   .     A
C105   H31     1.083   .     S
C106   C107    1.374   1_545 A
C106   O27     1.381   .     S
C107   C106    1.374   1_565 A
C107   C108    1.396   .     A
C107   O28     1.381   .     S
C108   H32     1.083   .     S
O21    Zn2     1.800   .     S
O22    Zn2     1.800   1_556 S
O23    Cu2     1.812   .     S
O24    Cu2     1.812   1_565 S
O25    Zn5     1.800   .     S
O26    Zn5     1.800   1_556 S
O27    Cu2     1.812   .     S
O28    Cu2     1.812   1_565 S
Ni2    N12     1.895   1_554 S
Ni2    N11     1.895   1_545 S
C109   C110    1.411   .     A
C109   C114    1.394   .     A
C109   H33     1.084   .     S
C110   C111    1.435   .     A
C110   C145    1.405   .     A
C111   C112    1.411   .     A
C111   C148    1.405   .     A
C112   C113    1.395   .     A
C112   H34     1.084   .     S
C113   C114    1.359   .     A
C113   C116    1.377   .     A
C114   C115    1.377   .     A
C115   N17     1.359   .     A
C115   N24     1.338   .     A
N17    C116    1.359   .     A
N17    Ni3     1.895   .     S
C116   N18     1.338   .     A
N18    C117    1.338   .     A
C117   N19     1.359   .     A
C117   C120    1.377   .     A
N19    C118    1.359   1_554 A
N19    Ni3     1.895   .     S
C118   N19     1.359   1_556 A
C118   C119    1.377   .     A
C118   N21     1.338   .     A
C119   C120    1.358   1_556 A
C119   C128    1.394   .     A
C120   C119    1.358   1_554 A
C120   C125    1.394   .     A
N20    C121    1.359   .     A
N20    C124    1.359   .     A
N20    Ni3     1.895   1_556 S
C121   N21     1.338   .     A
C121   C122    1.377   .     A
C122   C123    1.359   .     A
C122   C132    1.394   .     A
C123   C124    1.377   .     A
C123   C129    1.395   .     A
C124   N23     1.338   .     A
C125   C126    1.412   .     A
C125   H35     1.084   .     S
C126   C127    1.432   1_554 A
C126   C149    1.403   .     A
C127   C126    1.432   1_556 A
C127   C128    1.411   .     A
C127   C152    1.403   .     A
C128   H36     1.084   .     S
C129   C130    1.411   .     A
C129   H37     1.084   .     S
C130   C131    1.435   .     A
C130   C153    1.405   .     A
C131   C132    1.411   .     A
C131   C156    1.405   .     A
C132   H38     1.084   .     S
N22    C133    1.359   1_554 A
N22    C136    1.359   .     A
N22    Ni3     1.895   .     S
C133   N22     1.359   1_556 A
C133   N23     1.338   .     A
C133   C134    1.377   .     A
C134   C135    1.358   1_556 A
C134   C140    1.394   .     A
C135   C134    1.358   1_554 A
C135   C136    1.377   .     A
C135   C137    1.394   .     A
C136   N24     1.338   .     A
C137   C138    1.411   .     A
C137   H39     1.084   .     S
C138   C139    1.432   1_554 A
C138   C141    1.403   .     A
C139   C138    1.432   1_556 A
C139   C140    1.412   .     A
C139   C144    1.403   .     A
C140   H40     1.084   .     S
C141   C142    1.397   .     A
C141   H41     1.084   .     S
C142   C143    1.412   1_554 A
C142   O29     1.395   .     S
C143   C142    1.412   1_556 A
C143   C144    1.397   .     A
C143   O30     1.395   .     S
C144   H42     1.084   .     S
C145   C146    1.396   .     A
C145   H43     1.083   .     S
C146   C147    1.374   .     A
C146   O31     1.381   .     S
C147   C148    1.397   .     A
C147   O32     1.381   .     S
C148   H44     1.083   .     S
C149   C150    1.397   .     A
C149   H45     1.084   .     S
C150   C151    1.412   1_554 A
C150   O33     1.395   .     S
C151   C150    1.412   1_556 A
C151   C152    1.397   .     A
C151   O34     1.395   .     S
C152   H46     1.084   .     S
C153   C154    1.397   .     A
C153   H47     1.083   .     S
C154   C155    1.374   .     A
C154   O35     1.381   .     S
C155   C156    1.396   .     A
C155   O36     1.381   .     S
C156   H48     1.083   .     S
O29    Zn6     1.800   .     S
O30    Zn6     1.800   1_556 S
O31    Cu3     1.812   .     S
O32    Cu3     1.812   .     S
O33    Zn3     1.800   .     S
O34    Zn3     1.800   1_556 S
O35    Cu3     1.812   .     S
O36    Cu3     1.812   .     S
Ni3    N20     1.895   1_554 S
Cu1    O16     1.812   1_455 S
Cu1    O20     1.812   1_455 S
Cu2    O24     1.812   1_545 S
Cu2    O28     1.812   1_545 S
Zn1    O14     1.800   1_554 S
Zn2    O22     1.800   1_554 S
Zn3    O34     1.800   1_554 S
Zn4    O18     1.800   1_554 S
Zn5    O26     1.800   1_554 S
Zn6    O30     1.800   1_554 S
