data_ths_Feoct_TN_Cupln_spacer_DHBQ
_audit_creation_date              2023-08-06
_audit_creation_method            'Materials Studio'
_symmetry_space_group_name_H-M    'P1'
_symmetry_Int_Tables_number       1
_symmetry_cell_setting            triclinic
loop_
_symmetry_equiv_pos_as_xyz
  x,y,z
_cell_length_a                    32.4497
_cell_length_b                    12.9279
_cell_length_c                    97.2794
_cell_angle_alpha                 90.0000
_cell_angle_beta                  90.0000
_cell_angle_gamma                 90.0000
loop_
_atom_site_label
_atom_site_type_symbol
_atom_site_fract_x
_atom_site_fract_y
_atom_site_fract_z
_atom_site_U_iso_or_equiv
_atom_site_adp_type
_atom_site_occupancy
Fe1    Fe    0.00009   0.74996   0.02420   0.00000  Uiso   1.00
C1     C     0.47624   0.75655   0.31154   0.00000  Uiso   1.00
C2     C     0.52388   0.74340   0.31154   0.00000  Uiso   1.00
C3     C     0.54897   0.74444   0.29716   0.00000  Uiso   1.00
C4     C     0.52509   0.74890   0.28328   0.00000  Uiso   1.00
C5     C     0.47504   0.75105   0.28328   0.00000  Uiso   1.00
C6     C     0.45116   0.75551   0.29716   0.00000  Uiso   1.00
C7     C     0.54937   0.75126   0.27107   0.00000  Uiso   1.00
C8     C     0.59789   0.74976   0.26990   0.00000  Uiso   1.00
C9     C     0.62050   0.74566   0.28315   0.00000  Uiso   1.00
C10    C     0.59277   0.74349   0.29643   0.00000  Uiso   1.00
C11    C     0.45693   0.76879   0.32457   0.00000  Uiso   1.00
C12    C     0.47785   0.76361   0.33915   0.00000  Uiso   1.00
C13    C     0.52227   0.73633   0.33915   0.00000  Uiso   1.00
C14    C     0.54319   0.73116   0.32457   0.00000  Uiso   1.00
C15    C     0.40736   0.75647   0.29643   0.00000  Uiso   1.00
C16    C     0.37963   0.75429   0.28315   0.00000  Uiso   1.00
C17    C     0.40224   0.75019   0.26990   0.00000  Uiso   1.00
C18    C     0.45076   0.74869   0.27107   0.00000  Uiso   1.00
C19    C     0.37911   0.74776   0.25749   0.00000  Uiso   1.00
C20    C     0.33064   0.74913   0.25672   0.00000  Uiso   1.00
C21    C     0.30894   0.75305   0.26951   0.00000  Uiso   1.00
C22    C     0.33586   0.75557   0.28294   0.00000  Uiso   1.00
C23    C     0.66427   0.74438   0.28294   0.00000  Uiso   1.00
C24    C     0.69119   0.74690   0.26951   0.00000  Uiso   1.00
C25    C     0.66949   0.75082   0.25672   0.00000  Uiso   1.00
C26    C     0.62102   0.75219   0.25749   0.00000  Uiso   1.00
H1     H     0.53361   0.75507   0.26133   0.00000  Uiso   1.00
H2     H     0.60993   0.74213   0.30591   0.00000  Uiso   1.00
H3     H     0.42414   0.78199   0.32485   0.00000  Uiso   1.00
H4     H     0.57599   0.71795   0.32485   0.00000  Uiso   1.00
H5     H     0.39019   0.75782   0.30591   0.00000  Uiso   1.00
H6     H     0.46652   0.74489   0.26132   0.00000  Uiso   1.00
H7     H     0.39577   0.74471   0.24787   0.00000  Uiso   1.00
O1     O     0.30683   0.74725   0.24638   0.00000  Uiso   1.00
O2     O     0.27009   0.75390   0.26806   0.00000  Uiso   1.00
H8     H     0.31971   0.75844   0.29266   0.00000  Uiso   1.00
H9     H     0.68042   0.74150   0.29266   0.00000  Uiso   1.00
O3     O     0.73004   0.74603   0.26806   0.00000  Uiso   1.00
O4     O     0.69330   0.75268   0.24638   0.00000  Uiso   1.00
H10    H     0.60436   0.75524   0.24787   0.00000  Uiso   1.00
C27    C     0.54224   0.71950   0.35193   0.00000  Uiso   1.00
C28    C     0.52094   0.73227   0.36634   0.00000  Uiso   1.00
C29    C     0.47918   0.76767   0.36634   0.00000  Uiso   1.00
C30    C     0.45788   0.78045   0.35193   0.00000  Uiso   1.00
H11    H     0.57453   0.69868   0.35184   0.00000  Uiso   1.00
O5     O     0.53518   0.71780   0.37831   0.00000  Uiso   1.00
O6     O     0.46494   0.78213   0.37831   0.00000  Uiso   1.00
H12    H     0.42559   0.80126   0.35184   0.00000  Uiso   1.00
Fe2    Fe    0.50005   0.24996   0.52420   0.00000  Uiso   1.00
C31    C     0.97624   0.25655   0.81154   0.00000  Uiso   1.00
C32    C     0.02389   0.24340   0.81154   0.00000  Uiso   1.00
C33    C     0.04897   0.24444   0.79716   0.00000  Uiso   1.00
C34    C     0.02509   0.24890   0.78328   0.00000  Uiso   1.00
C35    C     0.97504   0.25105   0.78328   0.00000  Uiso   1.00
C36    C     0.95116   0.25551   0.79716   0.00000  Uiso   1.00
C37    C     0.04937   0.25126   0.77107   0.00000  Uiso   1.00
C38    C     0.09789   0.24976   0.76990   0.00000  Uiso   1.00
C39    C     0.12050   0.24566   0.78315   0.00000  Uiso   1.00
C40    C     0.09277   0.24349   0.79643   0.00000  Uiso   1.00
C41    C     0.95694   0.26879   0.82457   0.00000  Uiso   1.00
C42    C     0.97786   0.26361   0.83915   0.00000  Uiso   1.00
C43    C     0.02228   0.23633   0.83915   0.00000  Uiso   1.00
C44    C     0.04320   0.23115   0.82457   0.00000  Uiso   1.00
C45    C     0.90736   0.25646   0.79643   0.00000  Uiso   1.00
C46    C     0.87963   0.25429   0.78315   0.00000  Uiso   1.00
C47    C     0.90224   0.25019   0.76990   0.00000  Uiso   1.00
C48    C     0.95076   0.24869   0.77107   0.00000  Uiso   1.00
C49    C     0.87911   0.24776   0.75749   0.00000  Uiso   1.00
C50    C     0.83064   0.24913   0.75672   0.00000  Uiso   1.00
C51    C     0.80894   0.25305   0.76951   0.00000  Uiso   1.00
C52    C     0.83586   0.25557   0.78294   0.00000  Uiso   1.00
C53    C     0.16426   0.24438   0.78294   0.00000  Uiso   1.00
C54    C     0.19119   0.24690   0.76951   0.00000  Uiso   1.00
C55    C     0.16949   0.25082   0.75672   0.00000  Uiso   1.00
C56    C     0.12102   0.25219   0.75749   0.00000  Uiso   1.00
H13    H     0.03361   0.25506   0.76132   0.00000  Uiso   1.00
H14    H     0.10993   0.24213   0.80591   0.00000  Uiso   1.00
H15    H     0.92414   0.28199   0.82485   0.00000  Uiso   1.00
H16    H     0.07599   0.21795   0.82485   0.00000  Uiso   1.00
H17    H     0.89019   0.25782   0.80591   0.00000  Uiso   1.00
H18    H     0.96651   0.24489   0.76133   0.00000  Uiso   1.00
H19    H     0.89577   0.24471   0.74787   0.00000  Uiso   1.00
O7     O     0.80683   0.24725   0.74638   0.00000  Uiso   1.00
O8     O     0.77009   0.25390   0.76806   0.00000  Uiso   1.00
H20    H     0.81971   0.25845   0.79266   0.00000  Uiso   1.00
H21    H     0.18042   0.24151   0.79266   0.00000  Uiso   1.00
O9     O     0.23003   0.24603   0.76806   0.00000  Uiso   1.00
O10    O     0.19330   0.25268   0.74638   0.00000  Uiso   1.00
H22    H     0.10436   0.25524   0.74787   0.00000  Uiso   1.00
C57    C     0.04225   0.21949   0.85193   0.00000  Uiso   1.00
C58    C     0.02096   0.23227   0.86634   0.00000  Uiso   1.00
C59    C     0.97919   0.26767   0.86634   0.00000  Uiso   1.00
C60    C     0.95789   0.28044   0.85193   0.00000  Uiso   1.00
H23    H     0.07454   0.19868   0.85184   0.00000  Uiso   1.00
O11    O     0.03519   0.21780   0.87831   0.00000  Uiso   1.00
O12    O     0.96495   0.28213   0.87831   0.00000  Uiso   1.00
H24    H     0.92560   0.30126   0.85184   0.00000  Uiso   1.00
Fe3    Fe    0.00009   0.24996   0.97580   0.00000  Uiso   1.00
C61    C     0.97624   0.75655   0.18846   0.00000  Uiso   1.00
C62    C     0.02389   0.74340   0.18846   0.00000  Uiso   1.00
C63    C     0.04897   0.74444   0.20284   0.00000  Uiso   1.00
C64    C     0.02509   0.74890   0.21672   0.00000  Uiso   1.00
C65    C     0.97504   0.75105   0.21672   0.00000  Uiso   1.00
C66    C     0.95116   0.75551   0.20284   0.00000  Uiso   1.00
C67    C     0.04937   0.75126   0.22893   0.00000  Uiso   1.00
C68    C     0.09789   0.74976   0.23010   0.00000  Uiso   1.00
C69    C     0.12050   0.74566   0.21685   0.00000  Uiso   1.00
C70    C     0.09277   0.74349   0.20357   0.00000  Uiso   1.00
C71    C     0.95694   0.76879   0.17543   0.00000  Uiso   1.00
C72    C     0.97786   0.76361   0.16085   0.00000  Uiso   1.00
C73    C     0.02228   0.73633   0.16085   0.00000  Uiso   1.00
C74    C     0.04320   0.73115   0.17543   0.00000  Uiso   1.00
C75    C     0.90736   0.75646   0.20357   0.00000  Uiso   1.00
C76    C     0.87963   0.75429   0.21685   0.00000  Uiso   1.00
C77    C     0.90224   0.75019   0.23010   0.00000  Uiso   1.00
C78    C     0.95076   0.74869   0.22893   0.00000  Uiso   1.00
C79    C     0.87911   0.74776   0.24251   0.00000  Uiso   1.00
C80    C     0.83064   0.74912   0.24328   0.00000  Uiso   1.00
C81    C     0.80894   0.75305   0.23049   0.00000  Uiso   1.00
C82    C     0.83586   0.75557   0.21706   0.00000  Uiso   1.00
C83    C     0.16427   0.74438   0.21706   0.00000  Uiso   1.00
C84    C     0.19119   0.74690   0.23049   0.00000  Uiso   1.00
C85    C     0.16949   0.75082   0.24328   0.00000  Uiso   1.00
C86    C     0.12102   0.75219   0.24251   0.00000  Uiso   1.00
H25    H     0.03361   0.75506   0.23868   0.00000  Uiso   1.00
H26    H     0.10994   0.74213   0.19409   0.00000  Uiso   1.00
H27    H     0.92414   0.78199   0.17515   0.00000  Uiso   1.00
H28    H     0.07599   0.71795   0.17515   0.00000  Uiso   1.00
H29    H     0.89020   0.75782   0.19409   0.00000  Uiso   1.00
H30    H     0.96652   0.74489   0.23867   0.00000  Uiso   1.00
H31    H     0.89577   0.74471   0.25213   0.00000  Uiso   1.00
O13    O     0.80683   0.74725   0.25362   0.00000  Uiso   1.00
O14    O     0.77009   0.75390   0.23194   0.00000  Uiso   1.00
H32    H     0.81971   0.75845   0.20734   0.00000  Uiso   1.00
H33    H     0.18042   0.74150   0.20734   0.00000  Uiso   1.00
O15    O     0.23004   0.74603   0.23194   0.00000  Uiso   1.00
O16    O     0.19330   0.75268   0.25362   0.00000  Uiso   1.00
H34    H     0.10436   0.75524   0.25213   0.00000  Uiso   1.00
C87    C     0.04225   0.71949   0.14807   0.00000  Uiso   1.00
C88    C     0.02096   0.73227   0.13366   0.00000  Uiso   1.00
C89    C     0.97919   0.76767   0.13366   0.00000  Uiso   1.00
C90    C     0.95789   0.78044   0.14807   0.00000  Uiso   1.00
H35    H     0.07454   0.69868   0.14816   0.00000  Uiso   1.00
O17    O     0.03520   0.71780   0.12169   0.00000  Uiso   1.00
O18    O     0.96496   0.78213   0.12169   0.00000  Uiso   1.00
H36    H     0.92560   0.80126   0.14816   0.00000  Uiso   1.00
Fe4    Fe    0.50005   0.74996   0.47580   0.00000  Uiso   1.00
C91    C     0.47624   0.25655   0.68846   0.00000  Uiso   1.00
C92    C     0.52388   0.24340   0.68846   0.00000  Uiso   1.00
C93    C     0.54897   0.24444   0.70284   0.00000  Uiso   1.00
C94    C     0.52509   0.24890   0.71672   0.00000  Uiso   1.00
C95    C     0.47503   0.25105   0.71672   0.00000  Uiso   1.00
C96    C     0.45116   0.25551   0.70284   0.00000  Uiso   1.00
C97    C     0.54937   0.25126   0.72893   0.00000  Uiso   1.00
C98    C     0.59789   0.24976   0.73010   0.00000  Uiso   1.00
C99    C     0.62050   0.24566   0.71685   0.00000  Uiso   1.00
C100   C     0.59277   0.24349   0.70357   0.00000  Uiso   1.00
C101   C     0.45693   0.26879   0.67543   0.00000  Uiso   1.00
C102   C     0.47785   0.26361   0.66085   0.00000  Uiso   1.00
C103   C     0.52227   0.23633   0.66085   0.00000  Uiso   1.00
C104   C     0.54319   0.23116   0.67543   0.00000  Uiso   1.00
C105   C     0.40736   0.25646   0.70357   0.00000  Uiso   1.00
C106   C     0.37963   0.25429   0.71685   0.00000  Uiso   1.00
C107   C     0.40224   0.25019   0.73010   0.00000  Uiso   1.00
C108   C     0.45076   0.24869   0.72893   0.00000  Uiso   1.00
C109   C     0.37911   0.24776   0.74251   0.00000  Uiso   1.00
C110   C     0.33064   0.24913   0.74328   0.00000  Uiso   1.00
C111   C     0.30894   0.25305   0.73049   0.00000  Uiso   1.00
C112   C     0.33586   0.25557   0.71706   0.00000  Uiso   1.00
C113   C     0.66426   0.24438   0.71706   0.00000  Uiso   1.00
C114   C     0.69119   0.24690   0.73049   0.00000  Uiso   1.00
C115   C     0.66949   0.25082   0.74328   0.00000  Uiso   1.00
C116   C     0.62102   0.25219   0.74251   0.00000  Uiso   1.00
H37    H     0.53361   0.25506   0.73867   0.00000  Uiso   1.00
H38    H     0.60993   0.24213   0.69409   0.00000  Uiso   1.00
H39    H     0.42414   0.28199   0.67515   0.00000  Uiso   1.00
H40    H     0.57598   0.21795   0.67515   0.00000  Uiso   1.00
H41    H     0.39019   0.25782   0.69409   0.00000  Uiso   1.00
H42    H     0.46651   0.24489   0.73868   0.00000  Uiso   1.00
H43    H     0.39577   0.24471   0.75213   0.00000  Uiso   1.00
O19    O     0.30683   0.24726   0.75362   0.00000  Uiso   1.00
O20    O     0.27009   0.25390   0.73194   0.00000  Uiso   1.00
H44    H     0.31971   0.25845   0.70734   0.00000  Uiso   1.00
H45    H     0.68042   0.24151   0.70734   0.00000  Uiso   1.00
O21    O     0.73003   0.24603   0.73194   0.00000  Uiso   1.00
O22    O     0.69330   0.25268   0.75362   0.00000  Uiso   1.00
H46    H     0.60436   0.25524   0.75213   0.00000  Uiso   1.00
C117   C     0.54224   0.21950   0.64807   0.00000  Uiso   1.00
C118   C     0.52094   0.23227   0.63366   0.00000  Uiso   1.00
C119   C     0.47917   0.26767   0.63366   0.00000  Uiso   1.00
C120   C     0.45788   0.28044   0.64807   0.00000  Uiso   1.00
H47    H     0.57453   0.19868   0.64816   0.00000  Uiso   1.00
O23    O     0.53518   0.21780   0.62169   0.00000  Uiso   1.00
O24    O     0.46494   0.28213   0.62169   0.00000  Uiso   1.00
H48    H     0.42559   0.30126   0.64816   0.00000  Uiso   1.00
C121   C     0.96503   0.46000   0.00729   0.00000  Uiso   1.00
C122   C     0.98120   0.40258   0.99555   0.00000  Uiso   1.00
C123   C     0.01690   0.44294   0.98809   0.00000  Uiso   1.00
C124   C     0.03515   0.53992   0.99271   0.00000  Uiso   1.00
C125   C     0.01898   0.59734   0.00445   0.00000  Uiso   1.00
C126   C     0.98328   0.55698   0.01191   0.00000  Uiso   1.00
H49    H     0.93863   0.42956   0.01275   0.00000  Uiso   1.00
O25    O     0.96692   0.31515   0.99069   0.00000  Uiso   1.00
O26    O     0.02910   0.38529   0.97769   0.00000  Uiso   1.00
H50    H     0.06156   0.57035   0.98725   0.00000  Uiso   1.00
O27    O     0.03326   0.68477   0.00931   0.00000  Uiso   1.00
O28    O     0.97108   0.61463   0.02231   0.00000  Uiso   1.00
Cu1    Cu    0.75006   0.74995   0.25000   0.00000  Uiso   1.00
C127   C     0.46499   0.46000   0.49271   0.00000  Uiso   1.00
C128   C     0.48324   0.55698   0.48809   0.00000  Uiso   1.00
C129   C     0.51893   0.59734   0.49555   0.00000  Uiso   1.00
C130   C     0.53511   0.53992   0.50729   0.00000  Uiso   1.00
C131   C     0.51686   0.44294   0.51191   0.00000  Uiso   1.00
C132   C     0.48116   0.40258   0.50445   0.00000  Uiso   1.00
H51    H     0.43858   0.42956   0.48725   0.00000  Uiso   1.00
O29    O     0.47104   0.61463   0.47769   0.00000  Uiso   1.00
O30    O     0.53321   0.68477   0.49069   0.00000  Uiso   1.00
H52    H     0.56151   0.57036   0.51275   0.00000  Uiso   1.00
O31    O     0.52906   0.38529   0.52231   0.00000  Uiso   1.00
O32    O     0.46688   0.31515   0.50931   0.00000  Uiso   1.00
Cu2    Cu    0.75006   0.24995   0.75000   0.00000  Uiso   1.00
Cu3    Cu    0.25006   0.24995   0.75000   0.00000  Uiso   1.00
Cu4    Cu    0.25006   0.74995   0.25000   0.00000  Uiso   1.00
C133   C     0.46499   0.96000   0.50729   0.00000  Uiso   1.00
C134   C     0.48324   0.05698   0.51191   0.00000  Uiso   1.00
C135   C     0.51893   0.09734   0.50445   0.00000  Uiso   1.00
C136   C     0.53511   0.03992   0.49271   0.00000  Uiso   1.00
C137   C     0.51686   0.94294   0.48809   0.00000  Uiso   1.00
C138   C     0.48116   0.90258   0.49555   0.00000  Uiso   1.00
H53    H     0.43858   0.92956   0.51275   0.00000  Uiso   1.00
O33    O     0.47104   0.11463   0.52231   0.00000  Uiso   1.00
O34    O     0.53321   0.18477   0.50931   0.00000  Uiso   1.00
H54    H     0.56151   0.07036   0.48725   0.00000  Uiso   1.00
O35    O     0.52906   0.88529   0.47769   0.00000  Uiso   1.00
O36    O     0.46688   0.81515   0.49069   0.00000  Uiso   1.00
C139   C     0.96503   0.96000   0.99271   0.00000  Uiso   1.00
C140   C     0.98328   0.05698   0.98809   0.00000  Uiso   1.00
C141   C     0.01898   0.09734   0.99555   0.00000  Uiso   1.00
C142   C     0.03515   0.03992   0.00729   0.00000  Uiso   1.00
C143   C     0.01690   0.94294   0.01191   0.00000  Uiso   1.00
C144   C     0.98120   0.90258   0.00445   0.00000  Uiso   1.00
H55    H     0.93863   0.92956   0.98725   0.00000  Uiso   1.00
O37    O     0.97108   0.11463   0.97769   0.00000  Uiso   1.00
O38    O     0.03326   0.18477   0.99069   0.00000  Uiso   1.00
H56    H     0.06156   0.07035   0.01275   0.00000  Uiso   1.00
O39    O     0.02910   0.88529   0.02231   0.00000  Uiso   1.00
O40    O     0.96692   0.81515   0.00931   0.00000  Uiso   1.00
C145   C     0.98039   0.77729   0.05303   0.00000  Uiso   1.00
C146   C     0.01978   0.72264   0.05303   0.00000  Uiso   1.00
C147   C     0.03945   0.70005   0.06644   0.00000  Uiso   1.00
C148   C     0.02028   0.72667   0.07978   0.00000  Uiso   1.00
C149   C     0.97989   0.77326   0.07978   0.00000  Uiso   1.00
C150   C     0.96072   0.79987   0.06644   0.00000  Uiso   1.00
O41    O     0.96649   0.79980   0.04054   0.00000  Uiso   1.00
O42    O     0.03368   0.70013   0.04054   0.00000  Uiso   1.00
H57    H     0.06920   0.66230   0.06649   0.00000  Uiso   1.00
O43    O     0.03469   0.71301   0.09241   0.00000  Uiso   1.00
O44    O     0.96547   0.78692   0.09241   0.00000  Uiso   1.00
H58    H     0.93097   0.83763   0.06648   0.00000  Uiso   1.00
Cu5    Cu    0.00008   0.74996   0.10703   0.00000  Uiso   1.00
C151   C     0.48036   0.77729   0.44697   0.00000  Uiso   1.00
C152   C     0.51974   0.72263   0.44697   0.00000  Uiso   1.00
C153   C     0.53942   0.70005   0.43356   0.00000  Uiso   1.00
C154   C     0.52025   0.72667   0.42022   0.00000  Uiso   1.00
C155   C     0.47986   0.77326   0.42022   0.00000  Uiso   1.00
C156   C     0.46069   0.79987   0.43356   0.00000  Uiso   1.00
O45    O     0.46645   0.79979   0.45946   0.00000  Uiso   1.00
O46    O     0.53364   0.70012   0.45946   0.00000  Uiso   1.00
H59    H     0.56916   0.66230   0.43352   0.00000  Uiso   1.00
O47    O     0.53467   0.71301   0.40759   0.00000  Uiso   1.00
O48    O     0.46544   0.78692   0.40759   0.00000  Uiso   1.00
H60    H     0.43094   0.83762   0.43352   0.00000  Uiso   1.00
Cu6    Cu    0.50006   0.74996   0.39297   0.00000  Uiso   1.00
C157   C     0.48036   0.27729   0.55303   0.00000  Uiso   1.00
C158   C     0.51974   0.22263   0.55303   0.00000  Uiso   1.00
C159   C     0.53941   0.20005   0.56644   0.00000  Uiso   1.00
C160   C     0.52025   0.22667   0.57978   0.00000  Uiso   1.00
C161   C     0.47986   0.27326   0.57978   0.00000  Uiso   1.00
C162   C     0.46069   0.29987   0.56644   0.00000  Uiso   1.00
O49    O     0.46645   0.29979   0.54054   0.00000  Uiso   1.00
O50    O     0.53364   0.20012   0.54054   0.00000  Uiso   1.00
H61    H     0.56916   0.16230   0.56648   0.00000  Uiso   1.00
O51    O     0.53467   0.21301   0.59241   0.00000  Uiso   1.00
O52    O     0.46544   0.28692   0.59241   0.00000  Uiso   1.00
H62    H     0.43094   0.33762   0.56648   0.00000  Uiso   1.00
Cu7    Cu    0.50005   0.24996   0.60703   0.00000  Uiso   1.00
C163   C     0.98039   0.27729   0.94697   0.00000  Uiso   1.00
C164   C     0.01978   0.22264   0.94697   0.00000  Uiso   1.00
C165   C     0.03945   0.20005   0.93356   0.00000  Uiso   1.00
C166   C     0.02028   0.22667   0.92022   0.00000  Uiso   1.00
C167   C     0.97989   0.27326   0.92022   0.00000  Uiso   1.00
C168   C     0.96072   0.29987   0.93356   0.00000  Uiso   1.00
O53    O     0.96649   0.29980   0.95946   0.00000  Uiso   1.00
O54    O     0.03368   0.20013   0.95946   0.00000  Uiso   1.00
H63    H     0.06920   0.16230   0.93351   0.00000  Uiso   1.00
O55    O     0.03469   0.21301   0.90759   0.00000  Uiso   1.00
O56    O     0.96547   0.28692   0.90759   0.00000  Uiso   1.00
H64    H     0.93097   0.33763   0.93352   0.00000  Uiso   1.00
Cu8    Cu    0.00008   0.24997   0.89297   0.00000  Uiso   1.00
loop_
_geom_bond_atom_site_label_1
_geom_bond_atom_site_label_2
_geom_bond_distance
_geom_bond_site_symmetry_2
_ccdc_geom_bond_type
Fe1    O27     1.991   .     S
Fe1    O28     1.995   1_455 S
Fe1    O39     1.995   .     S
Fe1    O40     1.991   1_455 S
Fe1    O41     2.032   1_455 S
Fe1    O42     2.032   .     S
C1     C2      1.555   .     S
C1     C6      1.619   .     S
C1     C11     1.423   .     D
C2     C3      1.619   .     S
C2     C14     1.423   .     D
C3     C4      1.558   .     S
C3     C10     1.423   .     D
C4     C5      1.625   .     S
C4     C7      1.425   .     D
C5     C6      1.558   .     S
C5     C18     1.425   .     D
C6     C15     1.423   .     D
C7     C8      1.579   .     S
C7     H1      1.078   .     S
C8     C9      1.485   .     S
C8     C26     1.421   .     D
C9     C10     1.574   .     S
C9     C23     1.420   .     D
C10    H2      1.078   .     S
C11    C12     1.574   .     S
C11    H3      1.078   .     S
C12    C13     1.484   .     S
C12    C30     1.419   .     D
C13    C14     1.574   .     S
C13    C27     1.419   .     D
C14    H4      1.078   .     S
C15    C16     1.574   .     S
C15    H5      1.078   .     S
C16    C17     1.485   .     S
C16    C22     1.420   .     D
C17    C18     1.579   .     S
C17    C19     1.421   .     D
C18    H6      1.078   .     S
C19    C20     1.575   .     S
C19    H7      1.082   .     S
C20    C21     1.430   .     S
C20    O1      1.269   .     D
C21    C22     1.572   .     S
C21    O2      1.268   .     D
C22    H8      1.082   .     S
C23    C24     1.572   .     S
C23    H9      1.082   .     S
C24    C25     1.430   .     S
C24    O3      1.268   .     D
C25    C26     1.575   .     S
C25    O4      1.269   .     D
C26    H10     1.082   .     S
O1     Cu4     1.876   .     S
O2     Cu4     1.874   .     S
O3     Cu1     1.874   .     S
O4     Cu1     1.876   .     S
C27    C28     1.571   .     S
C27    H11     1.082   .     S
C28    C29     1.430   .     S
C28    O5      1.267   .     D
C29    C30     1.571   .     S
C29    O6      1.267   .     D
C30    H12     1.082   .     S
O5     Cu6     1.872   .     S
O6     Cu6     1.872   .     S
Fe2    O31     1.995   .     S
Fe2    O32     1.991   .     S
Fe2    O33     1.995   .     S
Fe2    O34     1.991   .     S
Fe2    O49     2.032   .     S
Fe2    O50     2.032   .     S
C31    C32     1.555   1_655 S
C31    C36     1.619   .     S
C31    C41     1.423   .     D
C32    C31     1.555   1_455 S
C32    C33     1.619   .     S
C32    C44     1.423   .     D
C33    C34     1.558   .     S
C33    C40     1.423   .     D
C34    C35     1.625   1_455 S
C34    C37     1.425   .     D
C35    C34     1.625   1_655 S
C35    C36     1.558   .     S
C35    C48     1.425   .     D
C36    C45     1.423   .     D
C37    C38     1.579   .     S
C37    H13     1.078   .     S
C38    C39     1.485   .     S
C38    C56     1.421   .     D
C39    C40     1.574   .     S
C39    C53     1.420   .     D
C40    H14     1.078   .     S
C41    C42     1.574   .     S
C41    H15     1.078   .     S
C42    C43     1.484   1_655 S
C42    C60     1.419   .     D
C43    C42     1.484   1_455 S
C43    C44     1.574   .     S
C43    C57     1.419   .     D
C44    H16     1.078   .     S
C45    C46     1.574   .     S
C45    H17     1.078   .     S
C46    C47     1.485   .     S
C46    C52     1.420   .     D
C47    C48     1.579   .     S
C47    C49     1.421   .     D
C48    H18     1.078   .     S
C49    C50     1.575   .     S
C49    H19     1.082   .     S
C50    C51     1.430   .     S
C50    O7      1.269   .     D
C51    C52     1.572   .     S
C51    O8      1.268   .     D
C52    H20     1.082   .     S
C53    C54     1.572   .     S
C53    H21     1.082   .     S
C54    C55     1.430   .     S
C54    O9      1.268   .     D
C55    C56     1.575   .     S
C55    O10     1.269   .     D
C56    H22     1.082   .     S
O7     Cu2     1.876   .     S
O8     Cu2     1.874   .     S
O9     Cu3     1.874   .     S
O10    Cu3     1.876   .     S
C57    C58     1.571   .     S
C57    H23     1.082   .     S
C58    C59     1.430   1_455 S
C58    O11     1.267   .     D
C59    C58     1.430   1_655 S
C59    C60     1.571   .     S
C59    O12     1.267   .     D
C60    H24     1.082   .     S
O11    Cu8     1.872   .     S
O12    Cu8     1.872   1_655 S
Fe3    O25     1.991   1_455 S
Fe3    O26     1.995   .     S
Fe3    O37     1.995   1_455 S
Fe3    O38     1.991   .     S
Fe3    O53     2.032   1_455 S
Fe3    O54     2.032   .     S
C61    C62     1.555   1_655 S
C61    C66     1.619   .     S
C61    C71     1.423   .     D
C62    C61     1.555   1_455 S
C62    C63     1.619   .     S
C62    C74     1.423   .     D
C63    C64     1.558   .     S
C63    C70     1.423   .     D
C64    C65     1.625   1_455 S
C64    C67     1.425   .     D
C65    C64     1.625   1_655 S
C65    C66     1.558   .     S
C65    C78     1.425   .     D
C66    C75     1.423   .     D
C67    C68     1.579   .     S
C67    H25     1.078   .     S
C68    C69     1.485   .     S
C68    C86     1.421   .     D
C69    C70     1.574   .     S
C69    C83     1.420   .     D
C70    H26     1.078   .     S
C71    C72     1.574   .     S
C71    H27     1.078   .     S
C72    C73     1.484   1_655 S
C72    C90     1.419   .     D
C73    C72     1.484   1_455 S
C73    C74     1.574   .     S
C73    C87     1.419   .     D
C74    H28     1.078   .     S
C75    C76     1.574   .     S
C75    H29     1.078   .     S
C76    C77     1.485   .     S
C76    C82     1.420   .     D
C77    C78     1.579   .     S
C77    C79     1.421   .     D
C78    H30     1.078   .     S
C79    C80     1.575   .     S
C79    H31     1.082   .     S
C80    C81     1.430   .     S
C80    O13     1.269   .     D
C81    C82     1.572   .     S
C81    O14     1.268   .     D
C82    H32     1.082   .     S
C83    C84     1.572   .     S
C83    H33     1.082   .     S
C84    C85     1.430   .     S
C84    O15     1.268   .     D
C85    C86     1.575   .     S
C85    O16     1.269   .     D
C86    H34     1.082   .     S
O13    Cu1     1.876   .     S
O14    Cu1     1.874   .     S
O15    Cu4     1.874   .     S
O16    Cu4     1.876   .     S
C87    C88     1.571   .     S
C87    H35     1.082   .     S
C88    C89     1.430   1_455 S
C88    O17     1.267   .     D
C89    C88     1.430   1_655 S
C89    C90     1.571   .     S
C89    O18     1.267   .     D
C90    H36     1.082   .     S
O17    Cu5     1.872   .     S
O18    Cu5     1.872   1_655 S
Fe4    O29     1.995   .     S
Fe4    O30     1.991   .     S
Fe4    O35     1.995   .     S
Fe4    O36     1.991   .     S
Fe4    O45     2.032   .     S
Fe4    O46     2.032   .     S
C91    C92     1.555   .     S
C91    C96     1.619   .     S
C91    C101    1.423   .     D
C92    C93     1.619   .     S
C92    C104    1.423   .     D
C93    C94     1.558   .     S
C93    C100    1.423   .     D
C94    C95     1.625   .     S
C94    C97     1.425   .     D
C95    C96     1.558   .     S
C95    C108    1.425   .     D
C96    C105    1.423   .     D
C97    C98     1.579   .     S
C97    H37     1.078   .     S
C98    C99     1.485   .     S
C98    C116    1.421   .     D
C99    C100    1.574   .     S
C99    C113    1.420   .     D
C100   H38     1.078   .     S
C101   C102    1.574   .     S
C101   H39     1.078   .     S
C102   C103    1.484   .     S
C102   C120    1.419   .     D
C103   C104    1.574   .     S
C103   C117    1.419   .     D
C104   H40     1.078   .     S
C105   C106    1.574   .     S
C105   H41     1.078   .     S
C106   C107    1.485   .     S
C106   C112    1.420   .     D
C107   C108    1.579   .     S
C107   C109    1.421   .     D
C108   H42     1.078   .     S
C109   C110    1.575   .     S
C109   H43     1.082   .     S
C110   C111    1.430   .     S
C110   O19     1.269   .     D
C111   C112    1.572   .     S
C111   O20     1.268   .     D
C112   H44     1.082   .     S
C113   C114    1.572   .     S
C113   H45     1.082   .     S
C114   C115    1.430   .     S
C114   O21     1.268   .     D
C115   C116    1.575   .     S
C115   O22     1.269   .     D
C116   H46     1.082   .     S
O19    Cu3     1.876   .     S
O20    Cu3     1.874   .     S
O21    Cu2     1.874   .     S
O22    Cu2     1.876   .     S
C117   C118    1.571   .     S
C117   H47     1.082   .     S
C118   C119    1.430   .     S
C118   O23     1.267   .     D
C119   C120    1.571   .     S
C119   O24     1.267   .     D
C120   H48     1.082   .     S
O23    Cu7     1.872   .     S
O24    Cu7     1.872   .     S
C121   C122    1.460   1_554 A
C121   C126    1.458   .     A
C121   H49     1.082   .     S
C122   C121    1.460   1_556 A
C122   C123    1.463   1_655 S
C122   O25     1.310   .     A
C123   C122    1.463   1_455 S
C123   C124    1.458   .     A
C123   O26     1.318   .     A
C124   C125    1.460   1_556 A
C124   H50     1.082   .     S
C125   C124    1.460   1_554 A
C125   C126    1.463   1_455 S
C125   O27     1.310   .     A
C126   C125    1.463   1_655 S
C126   O28     1.318   .     A
O25    Fe3     1.991   1_655 S
O28    Fe1     1.995   1_655 S
C127   C128    1.458   .     A
C127   C132    1.460   .     A
C127   H51     1.082   .     S
C128   C129    1.463   .     S
C128   O29     1.318   .     A
C129   C130    1.460   .     A
C129   O30     1.310   .     A
C130   C131    1.458   .     A
C130   H52     1.082   .     S
C131   C132    1.463   .     S
C131   O31     1.318   .     A
C132   O32     1.310   .     A
C133   C134    1.458   1_565 A
C133   C138    1.460   .     A
C133   H53     1.082   .     S
C134   C133    1.458   1_545 A
C134   C135    1.463   .     S
C134   O33     1.318   .     A
C135   C136    1.460   .     A
C135   O34     1.310   .     A
C136   C137    1.458   1_545 A
C136   H54     1.082   .     S
C137   C136    1.458   1_565 A
C137   C138    1.463   .     S
C137   O35     1.318   .     A
C138   O36     1.310   .     A
C139   C140    1.458   1_565 A
C139   C144    1.460   1_556 A
C139   H55     1.082   .     S
C140   C139    1.458   1_545 A
C140   C141    1.463   1_655 S
C140   O37     1.318   .     A
C141   C140    1.463   1_455 S
C141   C142    1.460   1_556 A
C141   O38     1.310   .     A
C142   C141    1.460   1_554 A
C142   C143    1.458   1_545 A
C142   H56     1.082   .     S
C143   C142    1.458   1_565 A
C143   C144    1.463   1_455 S
C143   O39     1.318   .     A
C144   C143    1.463   1_655 S
C144   C139    1.460   1_554 A
C144   O40     1.310   .     A
O37    Fe3     1.995   1_655 S
O40    Fe1     1.991   1_655 S
C145   C146    1.460   1_655 S
C145   C150    1.482   .     A
C145   O41     1.328   .     A
C146   C145    1.460   1_455 S
C146   C147    1.482   .     A
C146   O42     1.328   .     A
C147   C148    1.480   .     A
C147   H57     1.082   .     S
C148   C149    1.442   1_455 S
C148   O43     1.326   .     A
C149   C148    1.442   1_655 S
C149   C150    1.480   .     A
C149   O44     1.326   .     A
C150   H58     1.082   .     S
O41    Fe1     2.032   1_655 S
O43    Cu5     1.874   .     S
O44    Cu5     1.874   1_655 S
Cu5    O44     1.874   1_455 S
Cu5    O18     1.872   1_455 S
C151   C152    1.460   .     S
C151   C156    1.482   .     A
C151   O45     1.328   .     A
C152   C153    1.482   .     A
C152   O46     1.328   .     A
C153   C154    1.480   .     A
C153   H59     1.082   .     S
C154   C155    1.442   .     S
C154   O47     1.326   .     A
C155   C156    1.480   .     A
C155   O48     1.326   .     A
C156   H60     1.082   .     S
O47    Cu6     1.874   .     S
O48    Cu6     1.874   .     S
C157   C158    1.460   .     S
C157   C162    1.482   .     A
C157   O49     1.328   .     A
C158   C159    1.482   .     A
C158   O50     1.328   .     A
C159   C160    1.480   .     A
C159   H61     1.082   .     S
C160   C161    1.442   .     S
C160   O51     1.326   .     A
C161   C162    1.480   .     A
C161   O52     1.326   .     A
C162   H62     1.082   .     S
O51    Cu7     1.874   .     S
O52    Cu7     1.874   .     S
C163   C164    1.460   1_655 S
C163   C168    1.482   .     A
C163   O53     1.328   .     A
C164   C163    1.460   1_455 S
C164   C165    1.482   .     A
C164   O54     1.328   .     A
C165   C166    1.480   .     A
C165   H63     1.082   .     S
C166   C167    1.442   1_455 S
C166   O55     1.326   .     A
C167   C166    1.442   1_655 S
C167   C168    1.480   .     A
C167   O56     1.326   .     A
C168   H64     1.082   .     S
O53    Fe3     2.032   1_655 S
O55    Cu8     1.874   .     S
O56    Cu8     1.874   1_655 S
Cu8    O56     1.874   1_455 S
Cu8    O12     1.872   1_455 S
