data_ths_Feoct_TP_Cupln_DHBQ
_audit_creation_date              2023-08-06
_audit_creation_method            'Materials Studio'
_symmetry_space_group_name_H-M    'P1'
_symmetry_Int_Tables_number       1
_symmetry_cell_setting            triclinic
loop_
_symmetry_equiv_pos_as_xyz
  x,y,z
_cell_length_a                    21.2297
_cell_length_b                    12.9279
_cell_length_c                    44.3882
_cell_angle_alpha                 90.0000
_cell_angle_beta                  90.0000
_cell_angle_gamma                 90.0000
loop_
_atom_site_label
_atom_site_type_symbol
_atom_site_fract_x
_atom_site_fract_y
_atom_site_fract_z
_atom_site_U_iso_or_equiv
_atom_site_adp_type
_atom_site_occupancy
Fe1    Fe    0.00005   0.75001   0.04200   0.00000  Uiso   1.00
C1     C     0.46725   0.77263   0.34703   0.00000  Uiso   1.00
C2     C     0.53286   0.72737   0.34703   0.00000  Uiso   1.00
C3     C     0.56973   0.72758   0.31809   0.00000  Uiso   1.00
C4     C     0.53528   0.74783   0.28880   0.00000  Uiso   1.00
C5     C     0.46482   0.75216   0.28880   0.00000  Uiso   1.00
C6     C     0.43037   0.77241   0.31809   0.00000  Uiso   1.00
C7     C     0.56818   0.76502   0.26295   0.00000  Uiso   1.00
C8     C     0.63679   0.75633   0.26274   0.00000  Uiso   1.00
C9     C     0.66943   0.73345   0.29004   0.00000  Uiso   1.00
C10    C     0.63387   0.72095   0.31817   0.00000  Uiso   1.00
C11    C     0.44150   0.80628   0.37334   0.00000  Uiso   1.00
C12    C     0.47159   0.78119   0.40224   0.00000  Uiso   1.00
C13    C     0.52852   0.71883   0.40224   0.00000  Uiso   1.00
C14    C     0.55860   0.69374   0.37334   0.00000  Uiso   1.00
C15    C     0.36623   0.77903   0.31817   0.00000  Uiso   1.00
C16    C     0.33067   0.76650   0.29004   0.00000  Uiso   1.00
C17    C     0.36332   0.74362   0.26274   0.00000  Uiso   1.00
C18    C     0.43193   0.73496   0.26295   0.00000  Uiso   1.00
H1     H     0.54556   0.78669   0.24208   0.00000  Uiso   1.00
O1     O     0.67000   0.76711   0.24066   0.00000  Uiso   1.00
O2     O     0.72640   0.72776   0.28763   0.00000  Uiso   1.00
H2     H     0.66093   0.71232   0.33859   0.00000  Uiso   1.00
H3     H     0.39693   0.84642   0.37414   0.00000  Uiso   1.00
O3     O     0.45025   0.80646   0.42670   0.00000  Uiso   1.00
O4     O     0.54986   0.69357   0.42671   0.00000  Uiso   1.00
H4     H     0.60317   0.65359   0.37414   0.00000  Uiso   1.00
H5     H     0.33918   0.78766   0.33859   0.00000  Uiso   1.00
O5     O     0.27371   0.77217   0.28764   0.00000  Uiso   1.00
O6     O     0.33011   0.73282   0.24066   0.00000  Uiso   1.00
H6     H     0.45455   0.71329   0.24208   0.00000  Uiso   1.00
Fe2    Fe    0.50005   0.25001   0.54200   0.00000  Uiso   1.00
C19    C     0.96725   0.27264   0.84703   0.00000  Uiso   1.00
C20    C     0.03285   0.22738   0.84703   0.00000  Uiso   1.00
C21    C     0.06973   0.22759   0.81809   0.00000  Uiso   1.00
C22    C     0.03528   0.24785   0.78880   0.00000  Uiso   1.00
C23    C     0.96482   0.25217   0.78880   0.00000  Uiso   1.00
C24    C     0.93037   0.27242   0.81809   0.00000  Uiso   1.00
C25    C     0.06817   0.26505   0.76295   0.00000  Uiso   1.00
C26    C     0.13678   0.25636   0.76274   0.00000  Uiso   1.00
C27    C     0.16943   0.23347   0.79004   0.00000  Uiso   1.00
C28    C     0.13387   0.22096   0.81817   0.00000  Uiso   1.00
C29    C     0.94150   0.30628   0.87334   0.00000  Uiso   1.00
C30    C     0.97159   0.28119   0.90224   0.00000  Uiso   1.00
C31    C     0.02851   0.21883   0.90224   0.00000  Uiso   1.00
C32    C     0.05860   0.19374   0.87334   0.00000  Uiso   1.00
C33    C     0.86623   0.27904   0.81817   0.00000  Uiso   1.00
C34    C     0.83067   0.26651   0.79004   0.00000  Uiso   1.00
C35    C     0.86332   0.24363   0.76274   0.00000  Uiso   1.00
C36    C     0.93193   0.23497   0.76295   0.00000  Uiso   1.00
H7     H     0.04556   0.28672   0.74208   0.00000  Uiso   1.00
O7     O     0.17000   0.26716   0.74066   0.00000  Uiso   1.00
O8     O     0.22639   0.22778   0.78763   0.00000  Uiso   1.00
H8     H     0.16092   0.21232   0.83859   0.00000  Uiso   1.00
H9     H     0.89693   0.34642   0.87414   0.00000  Uiso   1.00
O9     O     0.95024   0.30646   0.92671   0.00000  Uiso   1.00
O10    O     0.04985   0.19357   0.92671   0.00000  Uiso   1.00
H10    H     0.10317   0.15359   0.87414   0.00000  Uiso   1.00
H11    H     0.83918   0.28766   0.83860   0.00000  Uiso   1.00
O11    O     0.77371   0.27218   0.78764   0.00000  Uiso   1.00
O12    O     0.83010   0.23282   0.74066   0.00000  Uiso   1.00
H12    H     0.95454   0.21330   0.74208   0.00000  Uiso   1.00
Fe3    Fe    0.00005   0.25001   0.95799   0.00000  Uiso   1.00
C37    C     0.96725   0.77263   0.15297   0.00000  Uiso   1.00
C38    C     0.03286   0.72737   0.15297   0.00000  Uiso   1.00
C39    C     0.06973   0.72758   0.18191   0.00000  Uiso   1.00
C40    C     0.03528   0.74783   0.21120   0.00000  Uiso   1.00
C41    C     0.96482   0.75216   0.21120   0.00000  Uiso   1.00
C42    C     0.93037   0.77241   0.18191   0.00000  Uiso   1.00
C43    C     0.06818   0.76502   0.23705   0.00000  Uiso   1.00
C44    C     0.13679   0.75633   0.23726   0.00000  Uiso   1.00
C45    C     0.16943   0.73346   0.20996   0.00000  Uiso   1.00
C46    C     0.13387   0.72095   0.18183   0.00000  Uiso   1.00
C47    C     0.94150   0.80627   0.12666   0.00000  Uiso   1.00
C48    C     0.97159   0.78119   0.09776   0.00000  Uiso   1.00
C49    C     0.02852   0.71883   0.09776   0.00000  Uiso   1.00
C50    C     0.05860   0.69374   0.12666   0.00000  Uiso   1.00
C51    C     0.86623   0.77903   0.18183   0.00000  Uiso   1.00
C52    C     0.83067   0.76650   0.20996   0.00000  Uiso   1.00
C53    C     0.86332   0.74362   0.23726   0.00000  Uiso   1.00
C54    C     0.93193   0.73495   0.23705   0.00000  Uiso   1.00
H13    H     0.04556   0.78669   0.25792   0.00000  Uiso   1.00
O13    O     0.17000   0.76711   0.25934   0.00000  Uiso   1.00
O14    O     0.22640   0.72776   0.21237   0.00000  Uiso   1.00
H14    H     0.16093   0.71233   0.16140   0.00000  Uiso   1.00
H15    H     0.89693   0.84642   0.12586   0.00000  Uiso   1.00
O15    O     0.95025   0.80646   0.07330   0.00000  Uiso   1.00
O16    O     0.04986   0.69357   0.07329   0.00000  Uiso   1.00
H16    H     0.10317   0.65359   0.12586   0.00000  Uiso   1.00
H17    H     0.83918   0.78765   0.16140   0.00000  Uiso   1.00
O17    O     0.77371   0.77216   0.21236   0.00000  Uiso   1.00
O18    O     0.83011   0.73281   0.25934   0.00000  Uiso   1.00
H18    H     0.95455   0.71329   0.25792   0.00000  Uiso   1.00
Fe4    Fe    0.50005   0.75001   0.45799   0.00000  Uiso   1.00
C55    C     0.46725   0.27264   0.65297   0.00000  Uiso   1.00
C56    C     0.53285   0.22738   0.65297   0.00000  Uiso   1.00
C57    C     0.56973   0.22759   0.68191   0.00000  Uiso   1.00
C58    C     0.53528   0.24785   0.71120   0.00000  Uiso   1.00
C59    C     0.46482   0.25217   0.71120   0.00000  Uiso   1.00
C60    C     0.43037   0.27242   0.68191   0.00000  Uiso   1.00
C61    C     0.56817   0.26504   0.73705   0.00000  Uiso   1.00
C62    C     0.63678   0.25634   0.73726   0.00000  Uiso   1.00
C63    C     0.66943   0.23347   0.70996   0.00000  Uiso   1.00
C64    C     0.63387   0.22096   0.68183   0.00000  Uiso   1.00
C65    C     0.44150   0.30628   0.62666   0.00000  Uiso   1.00
C66    C     0.47159   0.28119   0.59776   0.00000  Uiso   1.00
C67    C     0.52851   0.21883   0.59776   0.00000  Uiso   1.00
C68    C     0.55860   0.19374   0.62666   0.00000  Uiso   1.00
C69    C     0.36623   0.27903   0.68183   0.00000  Uiso   1.00
C70    C     0.33067   0.26652   0.70996   0.00000  Uiso   1.00
C71    C     0.36332   0.24365   0.73726   0.00000  Uiso   1.00
C72    C     0.43193   0.23498   0.73705   0.00000  Uiso   1.00
H19    H     0.54556   0.28670   0.75792   0.00000  Uiso   1.00
O19    O     0.67000   0.26712   0.75934   0.00000  Uiso   1.00
O20    O     0.72639   0.22777   0.71237   0.00000  Uiso   1.00
H20    H     0.66092   0.21233   0.66140   0.00000  Uiso   1.00
H21    H     0.39693   0.34642   0.62586   0.00000  Uiso   1.00
O21    O     0.45024   0.30646   0.57329   0.00000  Uiso   1.00
O22    O     0.54985   0.19357   0.57329   0.00000  Uiso   1.00
H22    H     0.60317   0.15359   0.62586   0.00000  Uiso   1.00
H23    H     0.33918   0.28765   0.66140   0.00000  Uiso   1.00
O23    O     0.27370   0.27218   0.71236   0.00000  Uiso   1.00
O24    O     0.33010   0.23286   0.75934   0.00000  Uiso   1.00
H24    H     0.45454   0.21332   0.75792   0.00000  Uiso   1.00
C73    C     0.94429   0.46754   0.01639   0.00000  Uiso   1.00
C74    C     0.97167   0.40278   0.99474   0.00000  Uiso   1.00
C75    C     0.02827   0.43579   0.97812   0.00000  Uiso   1.00
C76    C     0.05581   0.53248   0.98361   0.00000  Uiso   1.00
C77    C     0.02843   0.59725   0.00526   0.00000  Uiso   1.00
C78    C     0.97183   0.56424   0.02188   0.00000  Uiso   1.00
H25    H     0.90269   0.44339   0.02863   0.00000  Uiso   1.00
O25    O     0.95005   0.31365   0.98820   0.00000  Uiso   1.00
O26    O     0.04981   0.37184   0.95893   0.00000  Uiso   1.00
H26    H     0.09741   0.55664   0.97137   0.00000  Uiso   1.00
O27    O     0.05005   0.68638   0.01180   0.00000  Uiso   1.00
O28    O     0.95029   0.62818   0.04107   0.00000  Uiso   1.00
Cu1    Cu    0.75005   0.74994   0.25000   0.00000  Uiso   1.00
C79    C     0.44429   0.46754   0.48361   0.00000  Uiso   1.00
C80    C     0.47183   0.56424   0.47812   0.00000  Uiso   1.00
C81    C     0.52843   0.59725   0.49474   0.00000  Uiso   1.00
C82    C     0.55581   0.53248   0.51639   0.00000  Uiso   1.00
C83    C     0.52827   0.43579   0.52188   0.00000  Uiso   1.00
C84    C     0.47167   0.40277   0.50526   0.00000  Uiso   1.00
H27    H     0.40269   0.44339   0.47137   0.00000  Uiso   1.00
O29    O     0.45029   0.62818   0.45893   0.00000  Uiso   1.00
O30    O     0.55005   0.68638   0.48820   0.00000  Uiso   1.00
H28    H     0.59741   0.55664   0.52863   0.00000  Uiso   1.00
O31    O     0.54981   0.37184   0.54107   0.00000  Uiso   1.00
O32    O     0.45005   0.31365   0.51180   0.00000  Uiso   1.00
Cu2    Cu    0.75005   0.24995   0.75000   0.00000  Uiso   1.00
Cu3    Cu    0.25005   0.24998   0.75000   0.00000  Uiso   1.00
Cu4    Cu    0.25005   0.74994   0.25000   0.00000  Uiso   1.00
C85    C     0.44429   0.96754   0.51639   0.00000  Uiso   1.00
C86    C     0.47183   0.06424   0.52188   0.00000  Uiso   1.00
C87    C     0.52843   0.09725   0.50526   0.00000  Uiso   1.00
C88    C     0.55581   0.03248   0.48361   0.00000  Uiso   1.00
C89    C     0.52827   0.93579   0.47812   0.00000  Uiso   1.00
C90    C     0.47167   0.90278   0.49474   0.00000  Uiso   1.00
H29    H     0.40269   0.94339   0.52862   0.00000  Uiso   1.00
O33    O     0.45029   0.12818   0.54107   0.00000  Uiso   1.00
O34    O     0.55005   0.18638   0.51180   0.00000  Uiso   1.00
H30    H     0.59741   0.05664   0.47137   0.00000  Uiso   1.00
O35    O     0.54981   0.87184   0.45893   0.00000  Uiso   1.00
O36    O     0.45005   0.81365   0.48820   0.00000  Uiso   1.00
C91    C     0.94429   0.96754   0.98361   0.00000  Uiso   1.00
C92    C     0.97183   0.06424   0.97812   0.00000  Uiso   1.00
C93    C     0.02843   0.09725   0.99474   0.00000  Uiso   1.00
C94    C     0.05581   0.03248   0.01639   0.00000  Uiso   1.00
C95    C     0.02827   0.93579   0.02188   0.00000  Uiso   1.00
C96    C     0.97167   0.90278   0.00526   0.00000  Uiso   1.00
H31    H     0.90269   0.94339   0.97137   0.00000  Uiso   1.00
O37    O     0.95029   0.12818   0.95893   0.00000  Uiso   1.00
O38    O     0.05005   0.18638   0.98820   0.00000  Uiso   1.00
H32    H     0.09741   0.05664   0.02863   0.00000  Uiso   1.00
O39    O     0.04981   0.87184   0.04107   0.00000  Uiso   1.00
O40    O     0.95005   0.81365   0.01180   0.00000  Uiso   1.00
loop_
_geom_bond_atom_site_label_1
_geom_bond_atom_site_label_2
_geom_bond_distance
_geom_bond_site_symmetry_2
_ccdc_geom_bond_type
Fe1    O15     1.892   1_455 S
Fe1    O16     1.892   .     S
Fe1    O27     1.898   .     S
Fe1    O28     1.897   1_455 S
Fe1    O39     1.897   .     S
Fe1    O40     1.898   1_455 S
C1     C2      1.511   .     S
C1     C6      1.504   .     S
C1     C11     1.361   .     D
C2     C3      1.504   .     S
C2     C14     1.361   .     D
C3     C4      1.515   .     S
C3     C10     1.364   .     D
C4     C5      1.497   .     S
C4     C7      1.361   .     D
C5     C6      1.515   .     S
C5     C18     1.361   .     D
C6     C15     1.364   .     D
C7     C8      1.461   .     S
C7     H1      1.080   .     S
C8     C9      1.427   .     S
C8     O1      1.216   .     D
C9     C10     1.468   .     S
C9     O2      1.216   .     D
C10    H2      1.079   .     S
C11    C12     1.469   .     S
C11    H3      1.080   .     S
C12    C13     1.453   .     S
C12    O3      1.221   .     D
C13    C14     1.469   .     S
C13    O4      1.221   .     D
C14    H4      1.080   .     S
C15    C16     1.468   .     S
C15    H5      1.079   .     S
C16    C17     1.427   .     S
C16    O5      1.216   .     D
C17    C18     1.461   .     S
C17    O6      1.216   .     D
C18    H6      1.080   .     S
O1     Cu1     1.763   .     S
O2     Cu1     1.768   .     S
O3     Fe4     1.892   .     S
O4     Fe4     1.892   .     S
O5     Cu4     1.768   .     S
O6     Cu4     1.763   .     S
Fe2    O21     1.892   .     S
Fe2    O22     1.892   .     S
Fe2    O31     1.897   .     S
Fe2    O32     1.898   .     S
Fe2    O33     1.897   .     S
Fe2    O34     1.898   .     S
C19    C20     1.511   1_655 S
C19    C24     1.504   .     S
C19    C29     1.361   .     D
C20    C19     1.511   1_455 S
C20    C21     1.504   .     S
C20    C32     1.361   .     D
C21    C22     1.515   .     S
C21    C28     1.364   .     D
C22    C23     1.497   1_455 S
C22    C25     1.361   .     D
C23    C22     1.497   1_655 S
C23    C24     1.515   .     S
C23    C36     1.361   .     D
C24    C33     1.364   .     D
C25    C26     1.461   .     S
C25    H7      1.080   .     S
C26    C27     1.427   .     S
C26    O7      1.216   .     D
C27    C28     1.468   .     S
C27    O8      1.216   .     D
C28    H8      1.079   .     S
C29    C30     1.469   .     S
C29    H9      1.080   .     S
C30    C31     1.453   1_655 S
C30    O9      1.221   .     D
C31    C30     1.453   1_455 S
C31    C32     1.469   .     S
C31    O10     1.221   .     D
C32    H10     1.080   .     S
C33    C34     1.468   .     S
C33    H11     1.079   .     S
C34    C35     1.427   .     S
C34    O11     1.216   .     D
C35    C36     1.461   .     S
C35    O12     1.216   .     D
C36    H12     1.080   .     S
O7     Cu3     1.763   .     S
O8     Cu3     1.768   .     S
O9     Fe3     1.892   1_655 S
O10    Fe3     1.892   .     S
O11    Cu2     1.768   .     S
O12    Cu2     1.763   .     S
Fe3    O9      1.892   1_455 S
Fe3    O25     1.898   1_455 S
Fe3    O26     1.897   .     S
Fe3    O37     1.897   1_455 S
Fe3    O38     1.898   .     S
C37    C38     1.511   1_655 S
C37    C42     1.504   .     S
C37    C47     1.361   .     D
C38    C37     1.511   1_455 S
C38    C39     1.504   .     S
C38    C50     1.361   .     D
C39    C40     1.515   .     S
C39    C46     1.364   .     D
C40    C41     1.497   1_455 S
C40    C43     1.361   .     D
C41    C40     1.497   1_655 S
C41    C42     1.515   .     S
C41    C54     1.361   .     D
C42    C51     1.364   .     D
C43    C44     1.461   .     S
C43    H13     1.080   .     S
C44    C45     1.427   .     S
C44    O13     1.216   .     D
C45    C46     1.468   .     S
C45    O14     1.216   .     D
C46    H14     1.079   .     S
C47    C48     1.469   .     S
C47    H15     1.080   .     S
C48    C49     1.453   1_655 S
C48    O15     1.221   .     D
C49    C48     1.453   1_455 S
C49    C50     1.469   .     S
C49    O16     1.221   .     D
C50    H16     1.080   .     S
C51    C52     1.468   .     S
C51    H17     1.079   .     S
C52    C53     1.427   .     S
C52    O17     1.216   .     D
C53    C54     1.461   .     S
C53    O18     1.215   .     D
C54    H18     1.080   .     S
O13    Cu4     1.763   .     S
O14    Cu4     1.768   .     S
O15    Fe1     1.892   1_655 S
O17    Cu1     1.768   .     S
O18    Cu1     1.763   .     S
Fe4    O29     1.897   .     S
Fe4    O30     1.898   .     S
Fe4    O35     1.897   .     S
Fe4    O36     1.898   .     S
C55    C56     1.511   .     S
C55    C60     1.504   .     S
C55    C65     1.361   .     D
C56    C57     1.504   .     S
C56    C68     1.361   .     D
C57    C58     1.515   .     S
C57    C64     1.364   .     D
C58    C59     1.497   .     S
C58    C61     1.361   .     D
C59    C60     1.515   .     S
C59    C72     1.361   .     D
C60    C69     1.364   .     D
C61    C62     1.461   .     S
C61    H19     1.080   .     S
C62    C63     1.427   .     S
C62    O19     1.216   .     D
C63    C64     1.468   .     S
C63    O20     1.216   .     D
C64    H20     1.079   .     S
C65    C66     1.469   .     S
C65    H21     1.080   .     S
C66    C67     1.453   .     S
C66    O21     1.221   .     D
C67    C68     1.469   .     S
C67    O22     1.221   .     D
C68    H22     1.080   .     S
C69    C70     1.468   .     S
C69    H23     1.079   .     S
C70    C71     1.427   .     S
C70    O23     1.216   .     D
C71    C72     1.461   .     S
C71    O24     1.216   .     D
C72    H24     1.080   .     S
O19    Cu2     1.763   .     S
O20    Cu2     1.768   .     S
O23    Cu3     1.768   .     S
O24    Cu3     1.763   .     S
C73    C74     1.401   1_554 A
C73    C78     1.401   .     A
C73    H25     1.083   .     S
C74    C73     1.401   1_556 A
C74    C75     1.473   1_655 S
C74    O25     1.274   .     A
C75    C74     1.473   1_455 S
C75    C76     1.401   .     A
C75    O26     1.272   .     A
C76    C77     1.401   1_556 A
C76    H26     1.083   .     S
C77    C76     1.401   1_554 A
C77    C78     1.473   1_455 S
C77    O27     1.274   .     A
C78    C77     1.473   1_655 S
C78    O28     1.272   .     A
O25    Fe3     1.898   1_655 S
O28    Fe1     1.897   1_655 S
C79    C80     1.401   .     A
C79    C84     1.401   .     A
C79    H27     1.083   .     S
C80    C81     1.473   .     S
C80    O29     1.272   .     A
C81    C82     1.401   .     A
C81    O30     1.274   .     A
C82    C83     1.401   .     A
C82    H28     1.083   .     S
C83    C84     1.473   .     S
C83    O31     1.272   .     A
C84    O32     1.274   .     A
C85    C86     1.401   1_565 A
C85    C90     1.401   .     A
C85    H29     1.083   .     S
C86    C85     1.401   1_545 A
C86    C87     1.473   .     S
C86    O33     1.272   .     A
C87    C88     1.401   .     A
C87    O34     1.274   .     A
C88    C89     1.401   1_545 A
C88    H30     1.083   .     S
C89    C88     1.401   1_565 A
C89    C90     1.473   .     S
C89    O35     1.272   .     A
C90    O36     1.274   .     A
C91    C92     1.401   1_565 A
C91    C96     1.401   1_556 A
C91    H31     1.083   .     S
C92    C91     1.401   1_545 A
C92    C93     1.473   1_655 S
C92    O37     1.272   .     A
C93    C92     1.473   1_455 S
C93    C94     1.401   1_556 A
C93    O38     1.274   .     A
C94    C93     1.401   1_554 A
C94    C95     1.401   1_545 A
C94    H32     1.083   .     S
C95    C94     1.401   1_565 A
C95    C96     1.473   1_455 S
C95    O39     1.272   .     A
C96    C95     1.473   1_655 S
C96    C91     1.401   1_554 A
C96    O40     1.274   .     A
O37    Fe3     1.897   1_655 S
O40    Fe1     1.898   1_655 S
