data_ths_Feoct_TP_Cupln_spacer_DHBQ
_audit_creation_date              2023-08-06
_audit_creation_method            'Materials Studio'
_symmetry_space_group_name_H-M    'P1'
_symmetry_Int_Tables_number       1
_symmetry_cell_setting            triclinic
loop_
_symmetry_equiv_pos_as_xyz
  x,y,z
_cell_length_a                    21.2297
_cell_length_b                    12.9280
_cell_length_c                    77.8460
_cell_angle_alpha                 90.0000
_cell_angle_beta                  90.0000
_cell_angle_gamma                 90.0000
loop_
_atom_site_label
_atom_site_type_symbol
_atom_site_fract_x
_atom_site_fract_y
_atom_site_fract_z
_atom_site_U_iso_or_equiv
_atom_site_adp_type
_atom_site_occupancy
Fe1    Fe    0.00011   0.74998   0.02710   0.00000  Uiso   1.00
C1     C     0.46465   0.76290   0.31016   0.00000  Uiso   1.00
C2     C     0.53553   0.73707   0.31016   0.00000  Uiso   1.00
C3     C     0.57231   0.73716   0.29287   0.00000  Uiso   1.00
C4     C     0.53583   0.75133   0.27612   0.00000  Uiso   1.00
C5     C     0.46434   0.74865   0.27612   0.00000  Uiso   1.00
C6     C     0.42786   0.76282   0.29287   0.00000  Uiso   1.00
C7     C     0.56773   0.76823   0.26098   0.00000  Uiso   1.00
C8     C     0.63682   0.75978   0.25971   0.00000  Uiso   1.00
C9     C     0.67214   0.73981   0.27491   0.00000  Uiso   1.00
C10    C     0.63753   0.73089   0.29185   0.00000  Uiso   1.00
C11    C     0.43541   0.78265   0.32578   0.00000  Uiso   1.00
C12    C     0.46857   0.76921   0.34280   0.00000  Uiso   1.00
C13    C     0.53159   0.73076   0.34280   0.00000  Uiso   1.00
C14    C     0.56476   0.71732   0.32578   0.00000  Uiso   1.00
C15    C     0.36265   0.76908   0.29185   0.00000  Uiso   1.00
C16    C     0.32803   0.76015   0.27491   0.00000  Uiso   1.00
C17    C     0.36335   0.74018   0.25971   0.00000  Uiso   1.00
C18    C     0.43245   0.73175   0.26098   0.00000  Uiso   1.00
H1     H     0.54379   0.78828   0.24922   0.00000  Uiso   1.00
O1     O     0.66779   0.76727   0.24642   0.00000  Uiso   1.00
O2     O     0.72937   0.73293   0.27238   0.00000  Uiso   1.00
H2     H     0.66616   0.72259   0.30320   0.00000  Uiso   1.00
H3     H     0.38658   0.80535   0.32636   0.00000  Uiso   1.00
O3     O     0.44664   0.78508   0.35732   0.00000  Uiso   1.00
O4     O     0.55352   0.71489   0.35732   0.00000  Uiso   1.00
H4     H     0.61359   0.69462   0.32636   0.00000  Uiso   1.00
H5     H     0.33401   0.77736   0.30320   0.00000  Uiso   1.00
O5     O     0.27080   0.76701   0.27238   0.00000  Uiso   1.00
O6     O     0.33238   0.73268   0.24642   0.00000  Uiso   1.00
H6     H     0.45639   0.71171   0.24922   0.00000  Uiso   1.00
Fe2    Fe    0.50007   0.24997   0.52710   0.00000  Uiso   1.00
C19    C     0.96465   0.26290   0.81016   0.00000  Uiso   1.00
C20    C     0.03553   0.23706   0.81016   0.00000  Uiso   1.00
C21    C     0.07231   0.23715   0.79287   0.00000  Uiso   1.00
C22    C     0.03583   0.25132   0.77612   0.00000  Uiso   1.00
C23    C     0.96434   0.24865   0.77612   0.00000  Uiso   1.00
C24    C     0.92786   0.26281   0.79287   0.00000  Uiso   1.00
C25    C     0.06773   0.26822   0.76098   0.00000  Uiso   1.00
C26    C     0.13682   0.25977   0.75971   0.00000  Uiso   1.00
C27    C     0.17214   0.23980   0.77491   0.00000  Uiso   1.00
C28    C     0.13753   0.23089   0.79185   0.00000  Uiso   1.00
C29    C     0.93541   0.28265   0.82578   0.00000  Uiso   1.00
C30    C     0.96858   0.26920   0.84280   0.00000  Uiso   1.00
C31    C     0.03160   0.23076   0.84280   0.00000  Uiso   1.00
C32    C     0.06477   0.21731   0.82578   0.00000  Uiso   1.00
C33    C     0.86265   0.26908   0.79185   0.00000  Uiso   1.00
C34    C     0.82803   0.26015   0.77491   0.00000  Uiso   1.00
C35    C     0.86335   0.24018   0.75971   0.00000  Uiso   1.00
C36    C     0.93244   0.23174   0.76098   0.00000  Uiso   1.00
H7     H     0.04379   0.28827   0.74922   0.00000  Uiso   1.00
O7     O     0.16779   0.26726   0.74642   0.00000  Uiso   1.00
O8     O     0.22937   0.23293   0.77238   0.00000  Uiso   1.00
H8     H     0.16616   0.22260   0.80320   0.00000  Uiso   1.00
H9     H     0.88659   0.30535   0.82636   0.00000  Uiso   1.00
O9     O     0.94666   0.28507   0.85732   0.00000  Uiso   1.00
O10    O     0.05353   0.21488   0.85732   0.00000  Uiso   1.00
H10    H     0.11359   0.19461   0.82636   0.00000  Uiso   1.00
H11    H     0.83401   0.27737   0.80320   0.00000  Uiso   1.00
O11    O     0.77080   0.26701   0.77238   0.00000  Uiso   1.00
O12    O     0.83238   0.23267   0.74642   0.00000  Uiso   1.00
H12    H     0.95638   0.21169   0.74922   0.00000  Uiso   1.00
Fe3    Fe    0.00011   0.24998   0.97290   0.00000  Uiso   1.00
C37    C     0.96465   0.76290   0.18984   0.00000  Uiso   1.00
C38    C     0.03553   0.73706   0.18984   0.00000  Uiso   1.00
C39    C     0.07231   0.73715   0.20713   0.00000  Uiso   1.00
C40    C     0.03583   0.75132   0.22388   0.00000  Uiso   1.00
C41    C     0.96434   0.74865   0.22388   0.00000  Uiso   1.00
C42    C     0.92786   0.76281   0.20713   0.00000  Uiso   1.00
C43    C     0.06773   0.76822   0.23902   0.00000  Uiso   1.00
C44    C     0.13682   0.75977   0.24029   0.00000  Uiso   1.00
C45    C     0.17214   0.73980   0.22509   0.00000  Uiso   1.00
C46    C     0.13753   0.73089   0.20815   0.00000  Uiso   1.00
C47    C     0.93541   0.78265   0.17422   0.00000  Uiso   1.00
C48    C     0.96858   0.76920   0.15720   0.00000  Uiso   1.00
C49    C     0.03160   0.73075   0.15720   0.00000  Uiso   1.00
C50    C     0.06477   0.71731   0.17422   0.00000  Uiso   1.00
C51    C     0.86265   0.76908   0.20815   0.00000  Uiso   1.00
C52    C     0.82804   0.76015   0.22509   0.00000  Uiso   1.00
C53    C     0.86335   0.74018   0.24029   0.00000  Uiso   1.00
C54    C     0.93245   0.73175   0.23902   0.00000  Uiso   1.00
H13    H     0.04379   0.78828   0.25078   0.00000  Uiso   1.00
O13    O     0.16779   0.76726   0.25358   0.00000  Uiso   1.00
O14    O     0.22937   0.73293   0.22763   0.00000  Uiso   1.00
H14    H     0.16616   0.72259   0.19680   0.00000  Uiso   1.00
H15    H     0.88659   0.80535   0.17364   0.00000  Uiso   1.00
O15    O     0.94666   0.78507   0.14268   0.00000  Uiso   1.00
O16    O     0.05353   0.71488   0.14268   0.00000  Uiso   1.00
H16    H     0.11359   0.69461   0.17364   0.00000  Uiso   1.00
H17    H     0.83401   0.77737   0.19680   0.00000  Uiso   1.00
O17    O     0.77081   0.76701   0.22762   0.00000  Uiso   1.00
O18    O     0.83238   0.73267   0.25358   0.00000  Uiso   1.00
H18    H     0.95639   0.71170   0.25078   0.00000  Uiso   1.00
Fe4    Fe    0.50007   0.74997   0.47290   0.00000  Uiso   1.00
C55    C     0.46464   0.26290   0.68984   0.00000  Uiso   1.00
C56    C     0.53553   0.23707   0.68984   0.00000  Uiso   1.00
C57    C     0.57231   0.23716   0.70713   0.00000  Uiso   1.00
C58    C     0.53583   0.25133   0.72388   0.00000  Uiso   1.00
C59    C     0.46434   0.24865   0.72388   0.00000  Uiso   1.00
C60    C     0.42786   0.26282   0.70713   0.00000  Uiso   1.00
C61    C     0.56773   0.26823   0.73902   0.00000  Uiso   1.00
C62    C     0.63682   0.25978   0.74029   0.00000  Uiso   1.00
C63    C     0.67214   0.23981   0.72509   0.00000  Uiso   1.00
C64    C     0.63752   0.23089   0.70815   0.00000  Uiso   1.00
C65    C     0.43540   0.28265   0.67422   0.00000  Uiso   1.00
C66    C     0.46857   0.26921   0.65720   0.00000  Uiso   1.00
C67    C     0.53159   0.23076   0.65720   0.00000  Uiso   1.00
C68    C     0.56476   0.21732   0.67422   0.00000  Uiso   1.00
C69    C     0.36265   0.26908   0.70815   0.00000  Uiso   1.00
C70    C     0.32803   0.26015   0.72509   0.00000  Uiso   1.00
C71    C     0.36335   0.24018   0.74029   0.00000  Uiso   1.00
C72    C     0.43244   0.23175   0.73902   0.00000  Uiso   1.00
H19    H     0.54379   0.28828   0.75078   0.00000  Uiso   1.00
O19    O     0.66779   0.26727   0.75358   0.00000  Uiso   1.00
O20    O     0.72937   0.23293   0.72762   0.00000  Uiso   1.00
H20    H     0.66616   0.22260   0.69680   0.00000  Uiso   1.00
H21    H     0.38658   0.30535   0.67364   0.00000  Uiso   1.00
O21    O     0.44664   0.28508   0.64268   0.00000  Uiso   1.00
O22    O     0.55352   0.21489   0.64268   0.00000  Uiso   1.00
H22    H     0.61359   0.19462   0.67364   0.00000  Uiso   1.00
H23    H     0.33401   0.27737   0.69680   0.00000  Uiso   1.00
O23    O     0.27080   0.26701   0.72762   0.00000  Uiso   1.00
O24    O     0.33238   0.23268   0.75358   0.00000  Uiso   1.00
H24    H     0.45638   0.21170   0.75078   0.00000  Uiso   1.00
C73    C     0.94551   0.46354   0.00927   0.00000  Uiso   1.00
C74    C     0.97133   0.40260   0.99568   0.00000  Uiso   1.00
C75    C     0.02684   0.43955   0.98625   0.00000  Uiso   1.00
C76    C     0.05472   0.53641   0.99073   0.00000  Uiso   1.00
C77    C     0.02890   0.59735   0.00432   0.00000  Uiso   1.00
C78    C     0.97340   0.56039   0.01375   0.00000  Uiso   1.00
H25    H     0.90460   0.43617   0.01621   0.00000  Uiso   1.00
O25    O     0.94954   0.31414   0.99075   0.00000  Uiso   1.00
O26    O     0.04686   0.37890   0.97421   0.00000  Uiso   1.00
H26    H     0.09563   0.56378   0.98379   0.00000  Uiso   1.00
O27    O     0.05069   0.68581   0.00925   0.00000  Uiso   1.00
O28    O     0.95337   0.62105   0.02579   0.00000  Uiso   1.00
Cu1    Cu    0.75009   0.74995   0.25000   0.00000  Uiso   1.00
C79    C     0.44547   0.46354   0.49073   0.00000  Uiso   1.00
C80    C     0.47335   0.56039   0.48625   0.00000  Uiso   1.00
C81    C     0.52885   0.59735   0.49568   0.00000  Uiso   1.00
C82    C     0.55468   0.53641   0.50927   0.00000  Uiso   1.00
C83    C     0.52679   0.43955   0.51375   0.00000  Uiso   1.00
C84    C     0.47129   0.40260   0.50432   0.00000  Uiso   1.00
H27    H     0.40455   0.43617   0.48379   0.00000  Uiso   1.00
O29    O     0.45332   0.62105   0.47421   0.00000  Uiso   1.00
O30    O     0.55065   0.68581   0.49075   0.00000  Uiso   1.00
H28    H     0.59559   0.56378   0.51621   0.00000  Uiso   1.00
O31    O     0.54682   0.37890   0.52579   0.00000  Uiso   1.00
O32    O     0.44950   0.31414   0.50925   0.00000  Uiso   1.00
Cu2    Cu    0.75008   0.24995   0.75000   0.00000  Uiso   1.00
Cu3    Cu    0.25008   0.24995   0.75000   0.00000  Uiso   1.00
Cu4    Cu    0.25008   0.74995   0.25000   0.00000  Uiso   1.00
C85    C     0.44547   0.96354   0.50927   0.00000  Uiso   1.00
C86    C     0.47335   0.06039   0.51375   0.00000  Uiso   1.00
C87    C     0.52885   0.09735   0.50432   0.00000  Uiso   1.00
C88    C     0.55468   0.03641   0.49073   0.00000  Uiso   1.00
C89    C     0.52679   0.93955   0.48625   0.00000  Uiso   1.00
C90    C     0.47129   0.90260   0.49568   0.00000  Uiso   1.00
H29    H     0.40455   0.93617   0.51621   0.00000  Uiso   1.00
O33    O     0.45332   0.12105   0.52579   0.00000  Uiso   1.00
O34    O     0.55065   0.18581   0.50925   0.00000  Uiso   1.00
H30    H     0.59559   0.06378   0.48379   0.00000  Uiso   1.00
O35    O     0.54682   0.87890   0.47421   0.00000  Uiso   1.00
O36    O     0.44950   0.81414   0.49075   0.00000  Uiso   1.00
C91    C     0.94551   0.96354   0.99073   0.00000  Uiso   1.00
C92    C     0.97339   0.06039   0.98625   0.00000  Uiso   1.00
C93    C     0.02890   0.09735   0.99568   0.00000  Uiso   1.00
C94    C     0.05472   0.03641   0.00927   0.00000  Uiso   1.00
C95    C     0.02684   0.93955   0.01375   0.00000  Uiso   1.00
C96    C     0.97133   0.90260   0.00432   0.00000  Uiso   1.00
H31    H     0.90460   0.93617   0.98379   0.00000  Uiso   1.00
O37    O     0.95337   0.12105   0.97421   0.00000  Uiso   1.00
O38    O     0.05069   0.18581   0.99075   0.00000  Uiso   1.00
H32    H     0.09563   0.06378   0.01621   0.00000  Uiso   1.00
O39    O     0.04686   0.87890   0.02579   0.00000  Uiso   1.00
O40    O     0.94954   0.81414   0.00925   0.00000  Uiso   1.00
C97    C     0.97027   0.77871   0.06108   0.00000  Uiso   1.00
C98    C     0.02995   0.72125   0.06109   0.00000  Uiso   1.00
C99    C     0.06003   0.69725   0.07713   0.00000  Uiso   1.00
C100   C     0.03072   0.72543   0.09307   0.00000  Uiso   1.00
C101   C     0.96949   0.77452   0.09307   0.00000  Uiso   1.00
C102   C     0.94018   0.80271   0.07713   0.00000  Uiso   1.00
O41    O     0.94879   0.80280   0.04600   0.00000  Uiso   1.00
O42    O     0.05143   0.69715   0.04600   0.00000  Uiso   1.00
H33    H     0.10495   0.65767   0.07721   0.00000  Uiso   1.00
O43    O     0.05298   0.71067   0.10835   0.00000  Uiso   1.00
O44    O     0.94722   0.78929   0.10835   0.00000  Uiso   1.00
H34    H     0.89526   0.84228   0.07721   0.00000  Uiso   1.00
Cu5    Cu    0.00010   0.74998   0.12548   0.00000  Uiso   1.00
C103   C     0.47023   0.77871   0.43891   0.00000  Uiso   1.00
C104   C     0.52992   0.72124   0.43891   0.00000  Uiso   1.00
C105   C     0.56000   0.69725   0.42287   0.00000  Uiso   1.00
C106   C     0.53069   0.72543   0.40693   0.00000  Uiso   1.00
C107   C     0.46946   0.77452   0.40693   0.00000  Uiso   1.00
C108   C     0.44015   0.80270   0.42287   0.00000  Uiso   1.00
O45    O     0.44875   0.80280   0.45400   0.00000  Uiso   1.00
O46    O     0.55139   0.69715   0.45400   0.00000  Uiso   1.00
H35    H     0.60492   0.65767   0.42279   0.00000  Uiso   1.00
O47    O     0.55296   0.71067   0.39165   0.00000  Uiso   1.00
O48    O     0.44720   0.78929   0.39165   0.00000  Uiso   1.00
H36    H     0.39523   0.84228   0.42279   0.00000  Uiso   1.00
Cu6    Cu    0.50008   0.74998   0.37452   0.00000  Uiso   1.00
C109   C     0.47023   0.27871   0.56109   0.00000  Uiso   1.00
C110   C     0.52992   0.22124   0.56109   0.00000  Uiso   1.00
C111   C     0.56000   0.19725   0.57713   0.00000  Uiso   1.00
C112   C     0.53069   0.22543   0.59307   0.00000  Uiso   1.00
C113   C     0.46946   0.27452   0.59307   0.00000  Uiso   1.00
C114   C     0.44015   0.30270   0.57713   0.00000  Uiso   1.00
O49    O     0.44875   0.30280   0.54600   0.00000  Uiso   1.00
O50    O     0.55139   0.19715   0.54600   0.00000  Uiso   1.00
H37    H     0.60492   0.15767   0.57721   0.00000  Uiso   1.00
O51    O     0.55296   0.21067   0.60835   0.00000  Uiso   1.00
O52    O     0.44720   0.28929   0.60835   0.00000  Uiso   1.00
H38    H     0.39523   0.34228   0.57721   0.00000  Uiso   1.00
Cu7    Cu    0.50008   0.24998   0.62548   0.00000  Uiso   1.00
C115   C     0.97027   0.27871   0.93892   0.00000  Uiso   1.00
C116   C     0.02995   0.22125   0.93891   0.00000  Uiso   1.00
C117   C     0.06003   0.19725   0.92287   0.00000  Uiso   1.00
C118   C     0.03072   0.22543   0.90693   0.00000  Uiso   1.00
C119   C     0.96949   0.27452   0.90693   0.00000  Uiso   1.00
C120   C     0.94018   0.30271   0.92287   0.00000  Uiso   1.00
O53    O     0.94879   0.30280   0.95400   0.00000  Uiso   1.00
O54    O     0.05143   0.19715   0.95400   0.00000  Uiso   1.00
H39    H     0.10495   0.15767   0.92279   0.00000  Uiso   1.00
O55    O     0.05298   0.21067   0.89165   0.00000  Uiso   1.00
O56    O     0.94722   0.28929   0.89165   0.00000  Uiso   1.00
H40    H     0.89526   0.34228   0.92279   0.00000  Uiso   1.00
Cu8    Cu    0.00010   0.24998   0.87452   0.00000  Uiso   1.00
loop_
_geom_bond_atom_site_label_1
_geom_bond_atom_site_label_2
_geom_bond_distance
_geom_bond_site_symmetry_2
_ccdc_geom_bond_type
Fe1    O27     1.942   .     S
Fe1    O28     1.943   1_455 S
Fe1    O39     1.943   .     S
Fe1    O40     1.942   1_455 S
Fe1    O41     1.954   1_455 S
Fe1    O42     1.954   .     S
C1     C2      1.541   .     S
C1     C6      1.556   .     S
C1     C11     1.389   .     D
C2     C3      1.556   .     S
C2     C14     1.389   .     D
C3     C4      1.527   .     S
C3     C10     1.389   .     D
C4     C5      1.518   .     S
C4     C7      1.377   .     D
C5     C6      1.527   .     S
C5     C18     1.377   .     D
C6     C15     1.389   .     D
C7     C8      1.474   .     S
C7     H1      1.079   .     S
C8     C9      1.424   .     S
C8     O1      1.230   .     D
C9     C10     1.514   .     S
C9     O2      1.234   .     D
C10    H2      1.078   .     S
C11    C12     1.511   .     S
C11    H3      1.078   .     S
C12    C13     1.427   .     S
C12    O3      1.240   .     D
C13    C14     1.511   .     S
C13    O4      1.240   .     D
C14    H4      1.078   .     S
C15    C16     1.514   .     S
C15    H5      1.078   .     S
C16    C17     1.424   .     S
C16    O5      1.234   .     D
C17    C18     1.474   .     S
C17    O6      1.230   .     D
C18    H6      1.079   .     S
O1     Cu1     1.783   .     S
O2     Cu1     1.810   .     S
O3     Cu6     1.812   .     S
O4     Cu6     1.812   .     S
O5     Cu4     1.810   .     S
O6     Cu4     1.783   .     S
Fe2    O31     1.943   .     S
Fe2    O32     1.942   .     S
Fe2    O33     1.943   .     S
Fe2    O34     1.942   .     S
Fe2    O49     1.954   .     S
Fe2    O50     1.954   .     S
C19    C20     1.541   1_655 S
C19    C24     1.556   .     S
C19    C29     1.389   .     D
C20    C19     1.541   1_455 S
C20    C21     1.556   .     S
C20    C32     1.389   .     D
C21    C22     1.527   .     S
C21    C28     1.389   .     D
C22    C23     1.518   1_455 S
C22    C25     1.377   .     D
C23    C22     1.518   1_655 S
C23    C24     1.527   .     S
C23    C36     1.377   .     D
C24    C33     1.389   .     D
C25    C26     1.474   .     S
C25    H7      1.079   .     S
C26    C27     1.424   .     S
C26    O7      1.230   .     D
C27    C28     1.514   .     S
C27    O8      1.234   .     D
C28    H8      1.078   .     S
C29    C30     1.511   .     S
C29    H9      1.078   .     S
C30    C31     1.427   1_655 S
C30    O9      1.240   .     D
C31    C30     1.427   1_455 S
C31    C32     1.511   .     S
C31    O10     1.240   .     D
C32    H10     1.078   .     S
C33    C34     1.514   .     S
C33    H11     1.078   .     S
C34    C35     1.424   .     S
C34    O11     1.234   .     D
C35    C36     1.474   .     S
C35    O12     1.230   .     D
C36    H12     1.079   .     S
O7     Cu3     1.783   .     S
O8     Cu3     1.810   .     S
O9     Cu8     1.812   1_655 S
O10    Cu8     1.812   .     S
O11    Cu2     1.810   .     S
O12    Cu2     1.783   .     S
Fe3    O25     1.942   1_455 S
Fe3    O26     1.943   .     S
Fe3    O37     1.943   1_455 S
Fe3    O38     1.942   .     S
Fe3    O53     1.954   1_455 S
Fe3    O54     1.954   .     S
C37    C38     1.541   1_655 S
C37    C42     1.556   .     S
C37    C47     1.389   .     D
C38    C37     1.541   1_455 S
C38    C39     1.556   .     S
C38    C50     1.389   .     D
C39    C40     1.527   .     S
C39    C46     1.389   .     D
C40    C41     1.518   1_455 S
C40    C43     1.377   .     D
C41    C40     1.518   1_655 S
C41    C42     1.527   .     S
C41    C54     1.377   .     D
C42    C51     1.389   .     D
C43    C44     1.474   .     S
C43    H13     1.079   .     S
C44    C45     1.424   .     S
C44    O13     1.230   .     D
C45    C46     1.514   .     S
C45    O14     1.234   .     D
C46    H14     1.078   .     S
C47    C48     1.511   .     S
C47    H15     1.078   .     S
C48    C49     1.427   1_655 S
C48    O15     1.240   .     D
C49    C48     1.427   1_455 S
C49    C50     1.511   .     S
C49    O16     1.240   .     D
C50    H16     1.078   .     S
C51    C52     1.514   .     S
C51    H17     1.078   .     S
C52    C53     1.424   .     S
C52    O17     1.234   .     D
C53    C54     1.474   .     S
C53    O18     1.230   .     D
C54    H18     1.079   .     S
O13    Cu4     1.783   .     S
O14    Cu4     1.810   .     S
O15    Cu5     1.812   1_655 S
O16    Cu5     1.812   .     S
O17    Cu1     1.810   .     S
O18    Cu1     1.783   .     S
Fe4    O29     1.943   .     S
Fe4    O30     1.942   .     S
Fe4    O35     1.943   .     S
Fe4    O36     1.942   .     S
Fe4    O45     1.954   .     S
Fe4    O46     1.954   .     S
C55    C56     1.541   .     S
C55    C60     1.556   .     S
C55    C65     1.389   .     D
C56    C57     1.556   .     S
C56    C68     1.389   .     D
C57    C58     1.527   .     S
C57    C64     1.389   .     D
C58    C59     1.518   .     S
C58    C61     1.377   .     D
C59    C60     1.527   .     S
C59    C72     1.377   .     D
C60    C69     1.389   .     D
C61    C62     1.474   .     S
C61    H19     1.079   .     S
C62    C63     1.424   .     S
C62    O19     1.230   .     D
C63    C64     1.514   .     S
C63    O20     1.234   .     D
C64    H20     1.078   .     S
C65    C66     1.511   .     S
C65    H21     1.078   .     S
C66    C67     1.427   .     S
C66    O21     1.240   .     D
C67    C68     1.511   .     S
C67    O22     1.240   .     D
C68    H22     1.078   .     S
C69    C70     1.514   .     S
C69    H23     1.078   .     S
C70    C71     1.424   .     S
C70    O23     1.234   .     D
C71    C72     1.474   .     S
C71    O24     1.230   .     D
C72    H24     1.079   .     S
O19    Cu2     1.783   .     S
O20    Cu2     1.810   .     S
O21    Cu7     1.812   .     S
O22    Cu7     1.812   .     S
O23    Cu3     1.810   .     S
O24    Cu3     1.783   .     S
C73    C74     1.429   1_554 A
C73    C78     1.428   .     A
C73    H25     1.082   .     S
C74    C73     1.429   1_556 A
C74    C75     1.468   1_655 S
C74    O25     1.292   .     A
C75    C74     1.468   1_455 S
C75    C76     1.428   .     A
C75    O26     1.293   .     A
C76    C77     1.429   1_556 A
C76    H26     1.082   .     S
C77    C76     1.429   1_554 A
C77    C78     1.468   1_455 S
C77    O27     1.292   .     A
C78    C77     1.468   1_655 S
C78    O28     1.293   .     A
O25    Fe3     1.942   1_655 S
O28    Fe1     1.943   1_655 S
C79    C80     1.428   .     A
C79    C84     1.429   .     A
C79    H27     1.082   .     S
C80    C81     1.468   .     S
C80    O29     1.293   .     A
C81    C82     1.429   .     A
C81    O30     1.292   .     A
C82    C83     1.428   .     A
C82    H28     1.082   .     S
C83    C84     1.468   .     S
C83    O31     1.293   .     A
C84    O32     1.292   .     A
C85    C86     1.428   1_565 A
C85    C90     1.429   .     A
C85    H29     1.082   .     S
C86    C85     1.428   1_545 A
C86    C87     1.468   .     S
C86    O33     1.293   .     A
C87    C88     1.429   .     A
C87    O34     1.292   .     A
C88    C89     1.428   1_545 A
C88    H30     1.082   .     S
C89    C88     1.428   1_565 A
C89    C90     1.468   .     S
C89    O35     1.293   .     A
C90    O36     1.292   .     A
C91    C92     1.428   1_565 A
C91    C96     1.429   1_556 A
C91    H31     1.082   .     S
C92    C91     1.428   1_545 A
C92    C93     1.468   1_655 S
C92    O37     1.293   .     A
C93    C92     1.468   1_455 S
C93    C94     1.429   1_556 A
C93    O38     1.292   .     A
C94    C93     1.429   1_554 A
C94    C95     1.428   1_545 A
C94    H32     1.082   .     S
C95    C94     1.428   1_565 A
C95    C96     1.468   1_455 S
C95    O39     1.293   .     A
C96    C95     1.468   1_655 S
C96    C91     1.429   1_554 A
C96    O40     1.292   .     A
O37    Fe3     1.943   1_655 S
O40    Fe1     1.942   1_655 S
C97    C98     1.469   1_655 S
C97    C102    1.437   .     A
C97    O41     1.297   .     A
C98    C97     1.469   1_455 S
C98    C99     1.437   .     A
C98    O42     1.297   .     A
C99    C100    1.435   .     A
C99    H33     1.082   .     S
C100   C101    1.447   1_455 S
C100   O43     1.294   .     A
C101   C100    1.447   1_655 S
C101   C102    1.435   .     A
C101   O44     1.294   .     A
C102   H34     1.082   .     S
O41    Fe1     1.954   1_655 S
O43    Cu5     1.816   .     S
O44    Cu5     1.816   1_655 S
Cu5    O44     1.816   1_455 S
Cu5    O15     1.812   1_455 S
C103   C104    1.469   .     S
C103   C108    1.437   .     A
C103   O45     1.297   .     A
C104   C105    1.437   .     A
C104   O46     1.297   .     A
C105   C106    1.435   .     A
C105   H35     1.082   .     S
C106   C107    1.447   .     S
C106   O47     1.294   .     A
C107   C108    1.435   .     A
C107   O48     1.294   .     A
C108   H36     1.082   .     S
O47    Cu6     1.816   .     S
O48    Cu6     1.816   .     S
C109   C110    1.469   .     S
C109   C114    1.437   .     A
C109   O49     1.297   .     A
C110   C111    1.437   .     A
C110   O50     1.297   .     A
C111   C112    1.435   .     A
C111   H37     1.082   .     S
C112   C113    1.447   .     S
C112   O51     1.294   .     A
C113   C114    1.435   .     A
C113   O52     1.294   .     A
C114   H38     1.082   .     S
O51    Cu7     1.816   .     S
O52    Cu7     1.816   .     S
C115   C116    1.469   1_655 S
C115   C120    1.437   .     A
C115   O53     1.297   .     A
C116   C115    1.469   1_455 S
C116   C117    1.437   .     A
C116   O54     1.297   .     A
C117   C118    1.435   .     A
C117   H39     1.082   .     S
C118   C119    1.447   1_455 S
C118   O55     1.294   .     A
C119   C118    1.447   1_655 S
C119   C120    1.435   .     A
C119   O56     1.294   .     A
C120   H40     1.082   .     S
O53    Fe3     1.954   1_655 S
O55    Cu8     1.816   .     S
O56    Cu8     1.816   1_655 S
Cu8    O56     1.816   1_455 S
Cu8    O9      1.812   1_455 S
