data_ths_Feoct_B_Cupln_spacer_DHBQ
_audit_creation_date              2023-08-06
_audit_creation_method            'Materials Studio'
_symmetry_space_group_name_H-M    'P1'
_symmetry_Int_Tables_number       1
_symmetry_cell_setting            triclinic
loop_
_symmetry_equiv_pos_as_xyz
  x,y,z
_cell_length_a                    12.8299
_cell_length_b                    12.9280
_cell_length_c                    63.2967
_cell_angle_alpha                 90.0000
_cell_angle_beta                  90.0000
_cell_angle_gamma                 90.0000
loop_
_atom_site_label
_atom_site_type_symbol
_atom_site_fract_x
_atom_site_fract_y
_atom_site_fract_z
_atom_site_U_iso_or_equiv
_atom_site_adp_type
_atom_site_occupancy
Fe1    Fe    0.00014   0.74996   0.03481   0.00000  Uiso   1.00
C1     C     0.55752   0.74290   0.30240   0.00000  Uiso   1.00
C2     C     0.61719   0.74355   0.28093   0.00000  Uiso   1.00
C3     C     0.55868   0.74884   0.26087   0.00000  Uiso   1.00
C4     C     0.44161   0.75110   0.26087   0.00000  Uiso   1.00
C5     C     0.38310   0.75639   0.28093   0.00000  Uiso   1.00
C6     C     0.44277   0.75704   0.30240   0.00000  Uiso   1.00
O1     O     0.59459   0.73378   0.32054   0.00000  Uiso   1.00
O2     O     0.71280   0.74322   0.27793   0.00000  Uiso   1.00
O3     O     0.61309   0.75184   0.24481   0.00000  Uiso   1.00
O4     O     0.38720   0.74810   0.24481   0.00000  Uiso   1.00
O5     O     0.28749   0.75672   0.27793   0.00000  Uiso   1.00
O6     O     0.40570   0.76616   0.32054   0.00000  Uiso   1.00
Fe2    Fe    0.50014   0.24997   0.53481   0.00000  Uiso   1.00
C7     C     0.05752   0.24290   0.80240   0.00000  Uiso   1.00
C8     C     0.11719   0.24355   0.78093   0.00000  Uiso   1.00
C9     C     0.05868   0.24884   0.76087   0.00000  Uiso   1.00
C10    C     0.94161   0.25110   0.76087   0.00000  Uiso   1.00
C11    C     0.88310   0.25638   0.78093   0.00000  Uiso   1.00
C12    C     0.94277   0.25704   0.80240   0.00000  Uiso   1.00
O7     O     0.09459   0.23378   0.82054   0.00000  Uiso   1.00
O8     O     0.21280   0.24321   0.77793   0.00000  Uiso   1.00
O9     O     0.11309   0.25184   0.74481   0.00000  Uiso   1.00
O10    O     0.88720   0.24810   0.74481   0.00000  Uiso   1.00
O11    O     0.78749   0.25671   0.77793   0.00000  Uiso   1.00
O12    O     0.90570   0.26616   0.82054   0.00000  Uiso   1.00
Fe3    Fe    0.00014   0.24996   0.96519   0.00000  Uiso   1.00
C13    C     0.05752   0.74290   0.19760   0.00000  Uiso   1.00
C14    C     0.11719   0.74356   0.21907   0.00000  Uiso   1.00
C15    C     0.05868   0.74884   0.23913   0.00000  Uiso   1.00
C16    C     0.94161   0.75110   0.23913   0.00000  Uiso   1.00
C17    C     0.88310   0.75638   0.21907   0.00000  Uiso   1.00
C18    C     0.94277   0.75704   0.19760   0.00000  Uiso   1.00
O13    O     0.09459   0.73378   0.17946   0.00000  Uiso   1.00
O14    O     0.21280   0.74323   0.22207   0.00000  Uiso   1.00
O15    O     0.11309   0.75185   0.25519   0.00000  Uiso   1.00
O16    O     0.88720   0.74809   0.25519   0.00000  Uiso   1.00
O17    O     0.78749   0.75671   0.22207   0.00000  Uiso   1.00
O18    O     0.90570   0.76616   0.17946   0.00000  Uiso   1.00
Fe4    Fe    0.50014   0.74997   0.46519   0.00000  Uiso   1.00
C19    C     0.55752   0.24290   0.69760   0.00000  Uiso   1.00
C20    C     0.61719   0.24355   0.71907   0.00000  Uiso   1.00
C21    C     0.55868   0.24884   0.73913   0.00000  Uiso   1.00
C22    C     0.44161   0.25110   0.73913   0.00000  Uiso   1.00
C23    C     0.38310   0.25638   0.71907   0.00000  Uiso   1.00
C24    C     0.44277   0.25704   0.69760   0.00000  Uiso   1.00
O19    O     0.59459   0.23377   0.67946   0.00000  Uiso   1.00
O20    O     0.71280   0.24322   0.72207   0.00000  Uiso   1.00
O21    O     0.61309   0.25185   0.75519   0.00000  Uiso   1.00
O22    O     0.38720   0.24809   0.75519   0.00000  Uiso   1.00
O23    O     0.28749   0.25671   0.72207   0.00000  Uiso   1.00
O24    O     0.40570   0.26616   0.67946   0.00000  Uiso   1.00
C25    C     0.91085   0.46184   0.01143   0.00000  Uiso   1.00
C26    C     0.95228   0.40237   0.99412   0.00000  Uiso   1.00
C27    C     0.04311   0.44111   0.98249   0.00000  Uiso   1.00
C28    C     0.08944   0.53809   0.98857   0.00000  Uiso   1.00
C29    C     0.04801   0.59756   0.00588   0.00000  Uiso   1.00
C30    C     0.95718   0.55882   0.01751   0.00000  Uiso   1.00
H1     H     0.84383   0.43318   0.02000   0.00000  Uiso   1.00
O25    O     0.91612   0.31413   0.98752   0.00000  Uiso   1.00
O26    O     0.07500   0.38187   0.96718   0.00000  Uiso   1.00
H2     H     0.15646   0.56675   0.98000   0.00000  Uiso   1.00
O27    O     0.08417   0.68580   0.01248   0.00000  Uiso   1.00
O28    O     0.92529   0.61806   0.03282   0.00000  Uiso   1.00
Cu1    Cu    0.75014   0.74994   0.25000   0.00000  Uiso   1.00
C31    C     0.41085   0.46184   0.48857   0.00000  Uiso   1.00
C32    C     0.45718   0.55883   0.48249   0.00000  Uiso   1.00
C33    C     0.54801   0.59757   0.49412   0.00000  Uiso   1.00
C34    C     0.58944   0.53810   0.51143   0.00000  Uiso   1.00
C35    C     0.54311   0.44112   0.51751   0.00000  Uiso   1.00
C36    C     0.45228   0.40238   0.50588   0.00000  Uiso   1.00
H3     H     0.34383   0.43319   0.48000   0.00000  Uiso   1.00
O29    O     0.42528   0.61807   0.46719   0.00000  Uiso   1.00
O30    O     0.58417   0.68581   0.48752   0.00000  Uiso   1.00
H4     H     0.65646   0.56676   0.52000   0.00000  Uiso   1.00
O31    O     0.57501   0.38188   0.53282   0.00000  Uiso   1.00
O32    O     0.41612   0.31414   0.51248   0.00000  Uiso   1.00
Cu2    Cu    0.75014   0.24995   0.75000   0.00000  Uiso   1.00
Cu3    Cu    0.25014   0.24994   0.75000   0.00000  Uiso   1.00
Cu4    Cu    0.25014   0.74995   0.25000   0.00000  Uiso   1.00
C37    C     0.41085   0.96184   0.51143   0.00000  Uiso   1.00
C38    C     0.45718   0.05883   0.51751   0.00000  Uiso   1.00
C39    C     0.54801   0.09756   0.50588   0.00000  Uiso   1.00
C40    C     0.58944   0.03810   0.48857   0.00000  Uiso   1.00
C41    C     0.54310   0.94112   0.48249   0.00000  Uiso   1.00
C42    C     0.45228   0.90238   0.49412   0.00000  Uiso   1.00
H5     H     0.34383   0.93319   0.52000   0.00000  Uiso   1.00
O33    O     0.42528   0.11807   0.53281   0.00000  Uiso   1.00
O34    O     0.58417   0.18581   0.51248   0.00000  Uiso   1.00
H6     H     0.65646   0.06675   0.48000   0.00000  Uiso   1.00
O35    O     0.57500   0.88188   0.46718   0.00000  Uiso   1.00
O36    O     0.41612   0.81414   0.48752   0.00000  Uiso   1.00
C43    C     0.91085   0.96184   0.98857   0.00000  Uiso   1.00
C44    C     0.95718   0.05882   0.98249   0.00000  Uiso   1.00
C45    C     0.04801   0.09756   0.99412   0.00000  Uiso   1.00
C46    C     0.08944   0.03809   0.01143   0.00000  Uiso   1.00
C47    C     0.04310   0.94111   0.01751   0.00000  Uiso   1.00
C48    C     0.95228   0.90237   0.00588   0.00000  Uiso   1.00
H7     H     0.84382   0.93318   0.98000   0.00000  Uiso   1.00
O37    O     0.92528   0.11806   0.96718   0.00000  Uiso   1.00
O38    O     0.08417   0.18580   0.98752   0.00000  Uiso   1.00
H8     H     0.15646   0.06675   0.02000   0.00000  Uiso   1.00
O39    O     0.07500   0.88187   0.03282   0.00000  Uiso   1.00
O40    O     0.91612   0.81413   0.01248   0.00000  Uiso   1.00
C49    C     0.94913   0.77538   0.07745   0.00000  Uiso   1.00
C50    C     0.05116   0.72455   0.07745   0.00000  Uiso   1.00
C51    C     0.10378   0.70750   0.09747   0.00000  Uiso   1.00
C52    C     0.05358   0.73245   0.11736   0.00000  Uiso   1.00
C53    C     0.94671   0.76748   0.11736   0.00000  Uiso   1.00
C54    C     0.89651   0.79243   0.09747   0.00000  Uiso   1.00
O41    O     0.91368   0.79933   0.05870   0.00000  Uiso   1.00
O42    O     0.08660   0.70060   0.05870   0.00000  Uiso   1.00
H9     H     0.18170   0.67548   0.09755   0.00000  Uiso   1.00
O43    O     0.09262   0.72524   0.13635   0.00000  Uiso   1.00
O44    O     0.90767   0.77469   0.13635   0.00000  Uiso   1.00
H10    H     0.81859   0.82444   0.09755   0.00000  Uiso   1.00
Cu5    Cu    0.00014   0.74996   0.15790   0.00000  Uiso   1.00
C55    C     0.44912   0.77538   0.42255   0.00000  Uiso   1.00
C56    C     0.55116   0.72456   0.42255   0.00000  Uiso   1.00
C57    C     0.60378   0.70750   0.40253   0.00000  Uiso   1.00
C58    C     0.55358   0.73245   0.38264   0.00000  Uiso   1.00
C59    C     0.44671   0.76749   0.38264   0.00000  Uiso   1.00
C60    C     0.39650   0.79244   0.40253   0.00000  Uiso   1.00
O45    O     0.41368   0.79934   0.44130   0.00000  Uiso   1.00
O46    O     0.58660   0.70061   0.44130   0.00000  Uiso   1.00
H11    H     0.68170   0.67549   0.40245   0.00000  Uiso   1.00
O47    O     0.59262   0.72525   0.36365   0.00000  Uiso   1.00
O48    O     0.40766   0.77469   0.36365   0.00000  Uiso   1.00
H12    H     0.31859   0.82445   0.40245   0.00000  Uiso   1.00
Cu6    Cu    0.50014   0.74997   0.34210   0.00000  Uiso   1.00
C61    C     0.44913   0.27539   0.57745   0.00000  Uiso   1.00
C62    C     0.55116   0.22456   0.57745   0.00000  Uiso   1.00
C63    C     0.60378   0.20750   0.59747   0.00000  Uiso   1.00
C64    C     0.55358   0.23245   0.61736   0.00000  Uiso   1.00
C65    C     0.44671   0.26749   0.61736   0.00000  Uiso   1.00
C66    C     0.39651   0.29245   0.59747   0.00000  Uiso   1.00
O49    O     0.41369   0.29934   0.55870   0.00000  Uiso   1.00
O50    O     0.58660   0.20060   0.55870   0.00000  Uiso   1.00
H13    H     0.68170   0.17548   0.59755   0.00000  Uiso   1.00
O51    O     0.59262   0.22525   0.63635   0.00000  Uiso   1.00
O52    O     0.40767   0.27470   0.63635   0.00000  Uiso   1.00
H14    H     0.31859   0.32446   0.59755   0.00000  Uiso   1.00
Cu7    Cu    0.50014   0.24997   0.65790   0.00000  Uiso   1.00
C67    C     0.94912   0.27538   0.92255   0.00000  Uiso   1.00
C68    C     0.05116   0.22455   0.92255   0.00000  Uiso   1.00
C69    C     0.10378   0.20750   0.90253   0.00000  Uiso   1.00
C70    C     0.05358   0.23245   0.88264   0.00000  Uiso   1.00
C71    C     0.94671   0.26749   0.88264   0.00000  Uiso   1.00
C72    C     0.89650   0.29244   0.90253   0.00000  Uiso   1.00
O53    O     0.91368   0.29933   0.94130   0.00000  Uiso   1.00
O54    O     0.08660   0.20060   0.94130   0.00000  Uiso   1.00
H15    H     0.18170   0.17548   0.90245   0.00000  Uiso   1.00
O55    O     0.09262   0.22524   0.86365   0.00000  Uiso   1.00
O56    O     0.90766   0.27469   0.86365   0.00000  Uiso   1.00
H16    H     0.81859   0.32446   0.90245   0.00000  Uiso   1.00
Cu8    Cu    0.00014   0.24997   0.84210   0.00000  Uiso   1.00
loop_
_geom_bond_atom_site_label_1
_geom_bond_atom_site_label_2
_geom_bond_distance
_geom_bond_site_symmetry_2
_ccdc_geom_bond_type
Fe1    O27     1.961   .     S
Fe1    O28     1.961   1_455 S
Fe1    O39     1.961   .     S
Fe1    O40     1.961   1_455 S
Fe1    O41     1.981   1_455 S
Fe1    O42     1.981   .     S
C1     C2      1.560   .     S
C1     C6      1.483   .     S
C1     O1      1.249   .     D
C2     C3      1.477   .     S
C2     O2      1.241   .     D
C3     C4      1.502   .     S
C3     O3      1.234   .     D
C4     C5      1.477   .     S
C4     O4      1.234   .     D
C5     C6      1.560   .     S
C5     O5      1.241   .     D
C6     O6      1.249   .     D
O1     Cu6     1.837   .     S
O2     Cu1     1.833   .     S
O3     Cu1     1.789   .     S
O4     Cu4     1.789   .     S
O5     Cu4     1.833   .     S
O6     Cu6     1.837   .     S
Fe2    O31     1.961   .     S
Fe2    O32     1.961   .     S
Fe2    O33     1.961   .     S
Fe2    O34     1.961   .     S
Fe2    O49     1.981   .     S
Fe2    O50     1.981   .     S
C7     C8      1.560   .     S
C7     C12     1.483   1_455 S
C7     O7      1.249   .     D
C8     C9      1.477   .     S
C8     O8      1.241   .     D
C9     C10     1.502   1_455 S
C9     O9      1.234   .     D
C10    C9      1.502   1_655 S
C10    C11     1.477   .     S
C10    O10     1.234   .     D
C11    C12     1.560   .     S
C11    O11     1.241   .     D
C12    C7      1.483   1_655 S
C12    O12     1.249   .     D
O7     Cu8     1.837   .     S
O8     Cu3     1.833   .     S
O9     Cu3     1.789   .     S
O10    Cu2     1.789   .     S
O11    Cu2     1.833   .     S
O12    Cu8     1.837   1_655 S
Fe3    O25     1.961   1_455 S
Fe3    O26     1.961   .     S
Fe3    O37     1.961   1_455 S
Fe3    O38     1.961   .     S
Fe3    O53     1.981   1_455 S
Fe3    O54     1.981   .     S
C13    C14     1.560   .     S
C13    C18     1.483   1_455 S
C13    O13     1.249   .     D
C14    C15     1.477   .     S
C14    O14     1.241   .     D
C15    C16     1.502   1_455 S
C15    O15     1.234   .     D
C16    C15     1.502   1_655 S
C16    C17     1.477   .     S
C16    O16     1.234   .     D
C17    C18     1.560   .     S
C17    O17     1.241   .     D
C18    C13     1.483   1_655 S
C18    O18     1.249   .     D
O13    Cu5     1.837   .     S
O14    Cu4     1.833   .     S
O15    Cu4     1.789   .     S
O16    Cu1     1.789   .     S
O17    Cu1     1.833   .     S
O18    Cu5     1.837   1_655 S
Fe4    O29     1.961   .     S
Fe4    O30     1.961   .     S
Fe4    O35     1.961   .     S
Fe4    O36     1.961   .     S
Fe4    O45     1.981   .     S
Fe4    O46     1.981   .     S
C19    C20     1.560   .     S
C19    C24     1.483   .     S
C19    O19     1.249   .     D
C20    C21     1.477   .     S
C20    O20     1.241   .     D
C21    C22     1.502   .     S
C21    O21     1.234   .     D
C22    C23     1.477   .     S
C22    O22     1.234   .     D
C23    C24     1.560   .     S
C23    O23     1.241   .     D
C24    O24     1.249   .     D
O19    Cu7     1.837   .     S
O20    Cu2     1.833   .     S
O21    Cu2     1.789   .     S
O22    Cu3     1.789   .     S
O23    Cu3     1.833   .     S
O24    Cu7     1.837   .     S
C25    C26     1.440   1_554 A
C25    C30     1.440   .     A
C25    H1      1.082   .     S
C26    C25     1.440   1_556 A
C26    C27     1.466   1_655 S
C26    O25     1.300   .     A
C27    C26     1.466   1_455 S
C27    C28     1.440   .     A
C27    O26     1.301   .     A
C28    C29     1.440   1_556 A
C28    H2      1.082   .     S
C29    C28     1.440   1_554 A
C29    C30     1.466   1_455 S
C29    O27     1.300   .     A
C30    C29     1.466   1_655 S
C30    O28     1.301   .     A
O25    Fe3     1.961   1_655 S
O28    Fe1     1.961   1_655 S
C31    C32     1.440   .     A
C31    C36     1.440   .     A
C31    H3      1.082   .     S
C32    C33     1.466   .     S
C32    O29     1.301   .     A
C33    C34     1.440   .     A
C33    O30     1.300   .     A
C34    C35     1.440   .     A
C34    H4      1.082   .     S
C35    C36     1.466   .     S
C35    O31     1.301   .     A
C36    O32     1.300   .     A
C37    C38     1.440   1_565 A
C37    C42     1.440   .     A
C37    H5      1.082   .     S
C38    C37     1.440   1_545 A
C38    C39     1.466   .     S
C38    O33     1.301   .     A
C39    C40     1.440   .     A
C39    O34     1.300   .     A
C40    C41     1.440   1_545 A
C40    H6      1.082   .     S
C41    C40     1.440   1_565 A
C41    C42     1.466   .     S
C41    O35     1.301   .     A
C42    O36     1.300   .     A
C43    C44     1.440   1_565 A
C43    C48     1.440   1_556 A
C43    H7      1.082   .     S
C44    C43     1.440   1_545 A
C44    C45     1.466   1_655 S
C44    O37     1.301   .     A
C45    C44     1.466   1_455 S
C45    C46     1.440   1_556 A
C45    O38     1.300   .     A
C46    C45     1.440   1_554 A
C46    C47     1.440   1_545 A
C46    H8      1.082   .     S
C47    C46     1.440   1_565 A
C47    C48     1.466   1_455 S
C47    O39     1.301   .     A
C48    C47     1.466   1_655 S
C48    C43     1.440   1_554 A
C48    O40     1.300   .     A
O37    Fe3     1.961   1_655 S
O40    Fe1     1.961   1_655 S
C49    C50     1.465   1_655 S
C49    C54     1.453   .     A
C49    O41     1.308   .     A
C50    C49     1.465   1_455 S
C50    C51     1.453   .     A
C50    O42     1.308   .     A
C51    C52     1.451   .     A
C51    H9      1.082   .     S
C52    C53     1.444   1_455 S
C52    O43     1.305   .     A
C53    C52     1.444   1_655 S
C53    C54     1.451   .     A
C53    O44     1.305   .     A
C54    H10     1.082   .     S
O41    Fe1     1.981   1_655 S
O43    Cu5     1.836   .     S
O44    Cu5     1.836   1_655 S
Cu5    O44     1.836   1_455 S
Cu5    O18     1.837   1_455 S
C55    C56     1.465   .     S
C55    C60     1.453   .     A
C55    O45     1.308   .     A
C56    C57     1.453   .     A
C56    O46     1.308   .     A
C57    C58     1.451   .     A
C57    H11     1.082   .     S
C58    C59     1.444   .     S
C58    O47     1.305   .     A
C59    C60     1.451   .     A
C59    O48     1.305   .     A
C60    H12     1.082   .     S
O47    Cu6     1.836   .     S
O48    Cu6     1.836   .     S
C61    C62     1.465   .     S
C61    C66     1.453   .     A
C61    O49     1.308   .     A
C62    C63     1.453   .     A
C62    O50     1.308   .     A
C63    C64     1.451   .     A
C63    H13     1.082   .     S
C64    C65     1.444   .     S
C64    O51     1.305   .     A
C65    C66     1.451   .     A
C65    O52     1.305   .     A
C66    H14     1.082   .     S
O51    Cu7     1.836   .     S
O52    Cu7     1.836   .     S
C67    C68     1.465   1_655 S
C67    C72     1.453   .     A
C67    O53     1.308   .     A
C68    C67     1.465   1_455 S
C68    C69     1.453   .     A
C68    O54     1.308   .     A
C69    C70     1.451   .     A
C69    H15     1.082   .     S
C70    C71     1.444   1_455 S
C70    O55     1.305   .     A
C71    C70     1.444   1_655 S
C71    C72     1.451   .     A
C71    O56     1.306   .     A
C72    H16     1.082   .     S
O53    Fe3     1.981   1_655 S
O55    Cu8     1.836   .     S
O56    Cu8     1.836   1_655 S
Cu8    O56     1.836   1_455 S
Cu8    O12     1.837   1_455 S
