data_ths-TP_O-Zntet
_audit_creation_date              2021-11-06
_audit_creation_method            'Materials Studio'
_symmetry_space_group_name_H-M    'P1'
_symmetry_Int_Tables_number       1
_symmetry_cell_setting            triclinic
loop_
_symmetry_equiv_pos_as_xyz
  x,y,z
_cell_length_a                    21.4413
_cell_length_b                    21.4413
_cell_length_c                    73.1953
_cell_angle_alpha                 89.9990
_cell_angle_beta                  90.0000
_cell_angle_gamma                 90.0000
loop_
_atom_site_label
_atom_site_type_symbol
_atom_site_fract_x
_atom_site_fract_y
_atom_site_fract_z
_atom_site_U_iso_or_equiv
_atom_site_adp_type
_atom_site_occupancy
C1     C     0.00010   0.71674   0.02539   0.00000  Uiso   1.00
C2     C     0.00010   0.68334   0.04235   0.00000  Uiso   1.00
C3     C     0.00010   0.71664   0.05924   0.00000  Uiso   1.00
C4     C     0.00010   0.78336   0.05924   0.00000  Uiso   1.00
C5     C     0.00010   0.81666   0.04235   0.00000  Uiso   1.00
C6     C     0.00010   0.78326   0.02539   0.00000  Uiso   1.00
C7     C     0.00009   0.81493   0.07635   0.00000  Uiso   1.00
C8     C     0.00008   0.78256   0.09279   0.00000  Uiso   1.00
C9     C     0.00008   0.71743   0.09279   0.00000  Uiso   1.00
C10    C     0.00009   0.68506   0.07635   0.00000  Uiso   1.00
C11    C     0.00010   0.68180   0.00882   0.00000  Uiso   1.00
C12    C     0.00010   0.61709   0.00910   0.00000  Uiso   1.00
C13    C     0.00010   0.58538   0.02518   0.00000  Uiso   1.00
C14    C     0.00010   0.61686   0.04174   0.00000  Uiso   1.00
C15    C     0.00010   0.81820   0.00882   0.00000  Uiso   1.00
C16    C     0.00010   0.88291   0.00910   0.00000  Uiso   1.00
C17    C     0.00010   0.91462   0.02518   0.00000  Uiso   1.00
C18    C     0.00010   0.88314   0.04174   0.00000  Uiso   1.00
H1     H     0.00009   0.86482   0.07768   0.00000  Uiso   1.00
O1     O     0.00007   0.81470   0.10938   0.00000  Uiso   1.00
O2     O     0.00007   0.68528   0.10938   0.00000  Uiso   1.00
H2     H     0.00009   0.63517   0.07768   0.00000  Uiso   1.00
H3     H     0.00011   0.70245   0.99544   0.00000  Uiso   1.00
O3     O     0.00010   0.58136   0.99338   0.00000  Uiso   1.00
O4     O     0.00010   0.52105   0.02395   0.00000  Uiso   1.00
H4     H     0.00010   0.58753   0.05365   0.00000  Uiso   1.00
H5     H     0.00010   0.79755   0.99544   0.00000  Uiso   1.00
O5     O     0.00010   0.91864   0.99338   0.00000  Uiso   1.00
O6     O     0.00010   0.97895   0.02395   0.00000  Uiso   1.00
H6     H     0.00011   0.91246   0.05365   0.00000  Uiso   1.00
C19    C     0.46669   0.75001   0.30924   0.00000  Uiso   1.00
C20    C     0.53341   0.75001   0.30924   0.00000  Uiso   1.00
C21    C     0.56671   0.75001   0.29235   0.00000  Uiso   1.00
C22    C     0.53331   0.75001   0.27539   0.00000  Uiso   1.00
C23    C     0.46679   0.75001   0.27539   0.00000  Uiso   1.00
C24    C     0.43339   0.75001   0.29235   0.00000  Uiso   1.00
C25    C     0.56825   0.75001   0.25882   0.00000  Uiso   1.00
C26    C     0.63296   0.75001   0.25910   0.00000  Uiso   1.00
C27    C     0.66467   0.75001   0.27518   0.00000  Uiso   1.00
C28    C     0.63319   0.75001   0.29174   0.00000  Uiso   1.00
C29    C     0.43512   0.75001   0.32635   0.00000  Uiso   1.00
C30    C     0.46748   0.75001   0.34279   0.00000  Uiso   1.00
C31    C     0.53261   0.75001   0.34279   0.00000  Uiso   1.00
C32    C     0.56498   0.75001   0.32635   0.00000  Uiso   1.00
C33    C     0.36691   0.75001   0.29174   0.00000  Uiso   1.00
C34    C     0.33543   0.75001   0.27518   0.00000  Uiso   1.00
C35    C     0.36715   0.75001   0.25910   0.00000  Uiso   1.00
C36    C     0.43186   0.75001   0.25882   0.00000  Uiso   1.00
H7     H     0.54760   0.75001   0.24544   0.00000  Uiso   1.00
O7     O     0.66869   0.75000   0.24338   0.00000  Uiso   1.00
O8     O     0.72900   0.75000   0.27395   0.00000  Uiso   1.00
H8     H     0.66252   0.75001   0.30365   0.00000  Uiso   1.00
H9     H     0.38522   0.75001   0.32768   0.00000  Uiso   1.00
O9     O     0.43533   0.75001   0.35938   0.00000  Uiso   1.00
O10    O     0.56475   0.75001   0.35938   0.00000  Uiso   1.00
H10    H     0.61487   0.75001   0.32768   0.00000  Uiso   1.00
H11    H     0.33759   0.75001   0.30364   0.00000  Uiso   1.00
O11    O     0.27110   0.75000   0.27395   0.00000  Uiso   1.00
O12    O     0.33141   0.75000   0.24338   0.00000  Uiso   1.00
H12    H     0.45251   0.75001   0.24544   0.00000  Uiso   1.00
C37    C     0.50000   0.21674   0.52539   0.00000  Uiso   1.00
C38    C     0.50000   0.18333   0.54235   0.00000  Uiso   1.00
C39    C     0.50000   0.21663   0.55924   0.00000  Uiso   1.00
C40    C     0.50000   0.28336   0.55924   0.00000  Uiso   1.00
C41    C     0.50000   0.31666   0.54235   0.00000  Uiso   1.00
C42    C     0.50000   0.28326   0.52539   0.00000  Uiso   1.00
C43    C     0.50001   0.31493   0.57635   0.00000  Uiso   1.00
C44    C     0.50002   0.28256   0.59279   0.00000  Uiso   1.00
C45    C     0.50002   0.21743   0.59279   0.00000  Uiso   1.00
C46    C     0.50001   0.18506   0.57635   0.00000  Uiso   1.00
C47    C     0.50000   0.18180   0.50882   0.00000  Uiso   1.00
C48    C     0.50000   0.11709   0.50910   0.00000  Uiso   1.00
C49    C     0.50000   0.08538   0.52518   0.00000  Uiso   1.00
C50    C     0.50000   0.11685   0.54174   0.00000  Uiso   1.00
C51    C     0.50000   0.31819   0.50882   0.00000  Uiso   1.00
C52    C     0.50000   0.38290   0.50910   0.00000  Uiso   1.00
C53    C     0.50000   0.41462   0.52518   0.00000  Uiso   1.00
C54    C     0.50000   0.38314   0.54174   0.00000  Uiso   1.00
H13    H     0.50001   0.36482   0.57768   0.00000  Uiso   1.00
O13    O     0.50003   0.31470   0.60938   0.00000  Uiso   1.00
O14    O     0.50003   0.18528   0.60938   0.00000  Uiso   1.00
H14    H     0.50001   0.13517   0.57768   0.00000  Uiso   1.00
H15    H     0.50000   0.20245   0.49544   0.00000  Uiso   1.00
O15    O     0.50000   0.08136   0.49338   0.00000  Uiso   1.00
O16    O     0.50000   0.02105   0.52395   0.00000  Uiso   1.00
H16    H     0.50000   0.08753   0.55365   0.00000  Uiso   1.00
H17    H     0.50000   0.29755   0.49544   0.00000  Uiso   1.00
O17    O     0.50000   0.41864   0.49338   0.00000  Uiso   1.00
O18    O     0.50000   0.47894   0.52395   0.00000  Uiso   1.00
H18    H     0.50000   0.41246   0.55364   0.00000  Uiso   1.00
C55    C     0.96669   0.25001   0.80924   0.00000  Uiso   1.00
C56    C     0.03341   0.25001   0.80924   0.00000  Uiso   1.00
C57    C     0.06671   0.25001   0.79235   0.00000  Uiso   1.00
C58    C     0.03331   0.25001   0.77539   0.00000  Uiso   1.00
C59    C     0.96679   0.25001   0.77539   0.00000  Uiso   1.00
C60    C     0.93339   0.25001   0.79235   0.00000  Uiso   1.00
C61    C     0.06825   0.25001   0.75882   0.00000  Uiso   1.00
C62    C     0.13296   0.25001   0.75910   0.00000  Uiso   1.00
C63    C     0.16467   0.25001   0.77518   0.00000  Uiso   1.00
C64    C     0.13319   0.25001   0.79174   0.00000  Uiso   1.00
C65    C     0.93512   0.25001   0.82635   0.00000  Uiso   1.00
C66    C     0.96749   0.25001   0.84279   0.00000  Uiso   1.00
C67    C     0.03262   0.25001   0.84279   0.00000  Uiso   1.00
C68    C     0.06499   0.25001   0.82635   0.00000  Uiso   1.00
C69    C     0.86691   0.25001   0.79174   0.00000  Uiso   1.00
C70    C     0.83543   0.25001   0.77518   0.00000  Uiso   1.00
C71    C     0.86714   0.25001   0.75910   0.00000  Uiso   1.00
C72    C     0.93185   0.25001   0.75882   0.00000  Uiso   1.00
H19    H     0.04760   0.25001   0.74544   0.00000  Uiso   1.00
O19    O     0.16869   0.25000   0.74338   0.00000  Uiso   1.00
O20    O     0.22900   0.25000   0.77395   0.00000  Uiso   1.00
H20    H     0.16252   0.25001   0.80365   0.00000  Uiso   1.00
H21    H     0.88523   0.25001   0.82769   0.00000  Uiso   1.00
O21    O     0.93535   0.25001   0.85938   0.00000  Uiso   1.00
O22    O     0.06477   0.25001   0.85938   0.00000  Uiso   1.00
H22    H     0.11488   0.25001   0.82768   0.00000  Uiso   1.00
H23    H     0.83759   0.25001   0.80365   0.00000  Uiso   1.00
O23    O     0.77110   0.25000   0.77395   0.00000  Uiso   1.00
O24    O     0.83141   0.25000   0.74338   0.00000  Uiso   1.00
H24    H     0.95250   0.25001   0.74544   0.00000  Uiso   1.00
C73    C     0.00010   0.31667   0.95766   0.00000  Uiso   1.00
C74    C     0.00010   0.28326   0.97461   0.00000  Uiso   1.00
C75    C     0.00010   0.21674   0.97461   0.00000  Uiso   1.00
C76    C     0.00010   0.18334   0.95766   0.00000  Uiso   1.00
C77    C     0.00010   0.21664   0.94076   0.00000  Uiso   1.00
C78    C     0.00010   0.28337   0.94076   0.00000  Uiso   1.00
C79    C     0.00010   0.11686   0.95826   0.00000  Uiso   1.00
C80    C     0.00010   0.08538   0.97483   0.00000  Uiso   1.00
C81    C     0.00010   0.11709   0.99090   0.00000  Uiso   1.00
C82    C     0.00010   0.18181   0.99118   0.00000  Uiso   1.00
C83    C     0.00010   0.38315   0.95826   0.00000  Uiso   1.00
C84    C     0.00010   0.41462   0.97483   0.00000  Uiso   1.00
C85    C     0.00010   0.38291   0.99090   0.00000  Uiso   1.00
C86    C     0.00010   0.31820   0.99118   0.00000  Uiso   1.00
C87    C     0.00009   0.31494   0.92365   0.00000  Uiso   1.00
C88    C     0.00008   0.28257   0.90722   0.00000  Uiso   1.00
C89    C     0.00008   0.21744   0.90722   0.00000  Uiso   1.00
C90    C     0.00009   0.18507   0.92365   0.00000  Uiso   1.00
H25    H     0.00011   0.08754   0.94636   0.00000  Uiso   1.00
O25    O     0.00010   0.02106   0.97605   0.00000  Uiso   1.00
O26    O     0.00010   0.08136   0.00662   0.00000  Uiso   1.00
H26    H     0.00010   0.20245   0.00456   0.00000  Uiso   1.00
H27    H     0.00010   0.41247   0.94636   0.00000  Uiso   1.00
O27    O     0.00010   0.47895   0.97605   0.00000  Uiso   1.00
O28    O     0.00010   0.41864   0.00662   0.00000  Uiso   1.00
H28    H     0.00011   0.29755   0.00456   0.00000  Uiso   1.00
H29    H     0.00009   0.36483   0.92232   0.00000  Uiso   1.00
O29    O     0.00007   0.31472   0.89062   0.00000  Uiso   1.00
O30    O     0.00007   0.18530   0.89062   0.00000  Uiso   1.00
H30    H     0.00009   0.13518   0.92232   0.00000  Uiso   1.00
C91    C     0.96669   0.74999   0.19076   0.00000  Uiso   1.00
C92    C     0.03341   0.74999   0.19076   0.00000  Uiso   1.00
C93    C     0.06672   0.74999   0.20766   0.00000  Uiso   1.00
C94    C     0.03331   0.74999   0.22461   0.00000  Uiso   1.00
C95    C     0.96679   0.74999   0.22461   0.00000  Uiso   1.00
C96    C     0.93339   0.74999   0.20766   0.00000  Uiso   1.00
C97    C     0.06825   0.74999   0.24118   0.00000  Uiso   1.00
C98    C     0.13296   0.74999   0.24090   0.00000  Uiso   1.00
C99    C     0.16467   0.74999   0.22483   0.00000  Uiso   1.00
C100   C     0.13320   0.74999   0.20826   0.00000  Uiso   1.00
C101   C     0.93512   0.74999   0.17365   0.00000  Uiso   1.00
C102   C     0.96749   0.74999   0.15722   0.00000  Uiso   1.00
C103   C     0.03262   0.74999   0.15722   0.00000  Uiso   1.00
C104   C     0.06499   0.74999   0.17365   0.00000  Uiso   1.00
C105   C     0.86691   0.74999   0.20826   0.00000  Uiso   1.00
C106   C     0.83543   0.74999   0.22483   0.00000  Uiso   1.00
C107   C     0.86714   0.74999   0.24090   0.00000  Uiso   1.00
C108   C     0.93186   0.74999   0.24118   0.00000  Uiso   1.00
H31    H     0.04760   0.74999   0.25456   0.00000  Uiso   1.00
O31    O     0.16869   0.74999   0.25662   0.00000  Uiso   1.00
O32    O     0.22900   0.74999   0.22605   0.00000  Uiso   1.00
H32    H     0.16252   0.74999   0.19636   0.00000  Uiso   1.00
H33    H     0.88523   0.74999   0.17232   0.00000  Uiso   1.00
O33    O     0.93535   0.74999   0.14062   0.00000  Uiso   1.00
O34    O     0.06477   0.74999   0.14062   0.00000  Uiso   1.00
H34    H     0.11488   0.74999   0.17232   0.00000  Uiso   1.00
H35    H     0.83759   0.74999   0.19636   0.00000  Uiso   1.00
O35    O     0.77110   0.74999   0.22605   0.00000  Uiso   1.00
O36    O     0.83141   0.74999   0.25662   0.00000  Uiso   1.00
H36    H     0.95250   0.74999   0.25456   0.00000  Uiso   1.00
C109   C     0.50000   0.81666   0.45765   0.00000  Uiso   1.00
C110   C     0.50000   0.78326   0.47461   0.00000  Uiso   1.00
C111   C     0.50000   0.71674   0.47461   0.00000  Uiso   1.00
C112   C     0.50000   0.68334   0.45765   0.00000  Uiso   1.00
C113   C     0.50000   0.71664   0.44076   0.00000  Uiso   1.00
C114   C     0.50000   0.78336   0.44076   0.00000  Uiso   1.00
C115   C     0.50000   0.61686   0.45826   0.00000  Uiso   1.00
C116   C     0.50000   0.58538   0.47482   0.00000  Uiso   1.00
C117   C     0.50000   0.61709   0.49090   0.00000  Uiso   1.00
C118   C     0.50000   0.68180   0.49118   0.00000  Uiso   1.00
C119   C     0.50000   0.88314   0.45826   0.00000  Uiso   1.00
C120   C     0.50000   0.91462   0.47482   0.00000  Uiso   1.00
C121   C     0.50000   0.88291   0.49090   0.00000  Uiso   1.00
C122   C     0.50000   0.81820   0.49118   0.00000  Uiso   1.00
C123   C     0.50001   0.81494   0.42365   0.00000  Uiso   1.00
C124   C     0.50002   0.78257   0.40721   0.00000  Uiso   1.00
C125   C     0.50002   0.71744   0.40721   0.00000  Uiso   1.00
C126   C     0.50001   0.68507   0.42365   0.00000  Uiso   1.00
H37    H     0.50000   0.58754   0.44636   0.00000  Uiso   1.00
O37    O     0.50000   0.52105   0.47605   0.00000  Uiso   1.00
O38    O     0.50000   0.58136   0.50662   0.00000  Uiso   1.00
H38    H     0.50000   0.70245   0.50456   0.00000  Uiso   1.00
H39    H     0.50000   0.91247   0.44636   0.00000  Uiso   1.00
O39    O     0.50000   0.97895   0.47605   0.00000  Uiso   1.00
O40    O     0.50000   0.91864   0.50662   0.00000  Uiso   1.00
H40    H     0.50000   0.79755   0.50456   0.00000  Uiso   1.00
H41    H     0.50001   0.86483   0.42232   0.00000  Uiso   1.00
O41    O     0.50003   0.81472   0.39062   0.00000  Uiso   1.00
O42    O     0.50003   0.68530   0.39062   0.00000  Uiso   1.00
H42    H     0.50001   0.63518   0.42232   0.00000  Uiso   1.00
C127   C     0.46669   0.24999   0.69076   0.00000  Uiso   1.00
C128   C     0.53341   0.24999   0.69076   0.00000  Uiso   1.00
C129   C     0.56671   0.24999   0.70765   0.00000  Uiso   1.00
C130   C     0.53331   0.24999   0.72461   0.00000  Uiso   1.00
C131   C     0.46679   0.24999   0.72461   0.00000  Uiso   1.00
C132   C     0.43339   0.24999   0.70766   0.00000  Uiso   1.00
C133   C     0.56825   0.24999   0.74118   0.00000  Uiso   1.00
C134   C     0.63296   0.24999   0.74090   0.00000  Uiso   1.00
C135   C     0.66467   0.24999   0.72482   0.00000  Uiso   1.00
C136   C     0.63319   0.24999   0.70826   0.00000  Uiso   1.00
C137   C     0.43512   0.24999   0.67365   0.00000  Uiso   1.00
C138   C     0.46748   0.24999   0.65722   0.00000  Uiso   1.00
C139   C     0.53261   0.24999   0.65721   0.00000  Uiso   1.00
C140   C     0.56498   0.24999   0.67365   0.00000  Uiso   1.00
C141   C     0.36691   0.24999   0.70826   0.00000  Uiso   1.00
C142   C     0.33543   0.24999   0.72483   0.00000  Uiso   1.00
C143   C     0.36714   0.24999   0.74090   0.00000  Uiso   1.00
C144   C     0.43185   0.24999   0.74118   0.00000  Uiso   1.00
H43    H     0.54760   0.24999   0.75456   0.00000  Uiso   1.00
O43    O     0.66869   0.24999   0.75662   0.00000  Uiso   1.00
O44    O     0.72900   0.24999   0.72605   0.00000  Uiso   1.00
H44    H     0.66252   0.24999   0.69636   0.00000  Uiso   1.00
H45    H     0.38522   0.24999   0.67232   0.00000  Uiso   1.00
O45    O     0.43533   0.24999   0.64062   0.00000  Uiso   1.00
O46    O     0.56475   0.24999   0.64062   0.00000  Uiso   1.00
H46    H     0.61487   0.24999   0.67232   0.00000  Uiso   1.00
H47    H     0.33758   0.24999   0.69636   0.00000  Uiso   1.00
O47    O     0.27110   0.24999   0.72605   0.00000  Uiso   1.00
O48    O     0.33141   0.24999   0.75662   0.00000  Uiso   1.00
H48    H     0.45250   0.25000   0.75456   0.00000  Uiso   1.00
Cu1    Cu    0.00008   0.50000   0.00000   0.00000  Uiso   1.00
Cu2    Cu    0.75005   0.74999   0.25000   0.00000  Uiso   1.00
Cu3    Cu    0.49998   0.50000   0.50000   0.00000  Uiso   1.00
Cu4    Cu    0.75005   0.24998   0.75000   0.00000  Uiso   1.00
Cu5    Cu    0.25005   0.24998   0.75000   0.00000  Uiso   1.00
Cu6    Cu    0.25005   0.74998   0.25000   0.00000  Uiso   1.00
Cu7    Cu    0.49998   1.00000   0.50000   0.00000  Uiso   1.00
Cu8    Cu    0.00008   0.00000   0.00000   0.00000  Uiso   1.00
Zn1    Zn    0.00006   0.74999   0.12500   0.00000  Uiso   1.00
Zn2    Zn    0.50004   0.75001   0.37500   0.00000  Uiso   1.00
Zn3    Zn    0.50004   0.24999   0.62500   0.00000  Uiso   1.00
Zn4    Zn    0.00006   0.25001   0.87500   0.00000  Uiso   1.00
loop_
_geom_bond_atom_site_label_1
_geom_bond_atom_site_label_2
_geom_bond_distance
_geom_bond_site_symmetry_2
_ccdc_geom_bond_type
C1     C2      1.433   .     A
C1     C6      1.426   .     A
C1     C11     1.426   .     A
C2     C3      1.428   .     A
C2     C14     1.426   .     A
C3     C4      1.431   .     A
C3     C10     1.424   .     A
C4     C5      1.428   .     A
C4     C7      1.424   .     A
C5     C6      1.433   .     A
C5     C18     1.426   .     A
C6     C15     1.426   .     A
C7     C8      1.389   .     A
C7     H1      1.074   .     S
C8     C9      1.397   .     A
C8     O1      1.396   .     S
C9     C10     1.389   .     A
C9     O2      1.396   .     S
C10    H2      1.074   .     S
C11    C12     1.388   .     A
C11    H3      1.074   1_554 S
C12    C13     1.359   .     A
C12    O3      1.382   1_554 S
C13    C14     1.388   .     A
C13    O4      1.382   .     S
C14    H4      1.074   .     S
C15    C16     1.388   .     A
C15    H5      1.074   1_554 S
C16    C17     1.359   .     A
C16    O5      1.382   1_554 S
C17    C18     1.388   .     A
C17    O6      1.382   .     S
C18    H6      1.074   .     S
O1     Zn1     1.798   .     S
O2     Zn1     1.798   .     S
H3     C11     1.074   1_556 S
O3     C12     1.382   1_556 S
O3     Cu1     1.810   1_556 S
O4     Cu1     1.810   .     S
H5     C15     1.074   1_556 S
O5     C16     1.382   1_556 S
O5     Cu8     1.810   1_566 S
O6     Cu8     1.810   1_565 S
C19    C20     1.431   .     A
C19    C24     1.428   .     A
C19    C29     1.424   .     A
C20    C21     1.428   .     A
C20    C32     1.424   .     A
C21    C22     1.433   .     A
C21    C28     1.426   .     A
C22    C23     1.426   .     A
C22    C25     1.426   .     A
C23    C24     1.433   .     A
C23    C36     1.426   .     A
C24    C33     1.426   .     A
C25    C26     1.388   .     A
C25    H7      1.074   .     S
C26    C27     1.359   .     A
C26    O7      1.382   .     S
C27    C28     1.388   .     A
C27    O8      1.382   .     S
C28    H8      1.074   .     S
C29    C30     1.389   .     A
C29    H9      1.074   .     S
C30    C31     1.397   .     A
C30    O9      1.396   .     S
C31    C32     1.389   .     A
C31    O10     1.396   .     S
C32    H10     1.074   .     S
C33    C34     1.388   .     A
C33    H11     1.074   .     S
C34    C35     1.359   .     A
C34    O11     1.382   .     S
C35    C36     1.388   .     A
C35    O12     1.382   .     S
C36    H12     1.074   .     S
O7     Cu2     1.810   .     S
O8     Cu2     1.810   .     S
O9     Zn2     1.798   .     S
O10    Zn2     1.798   .     S
O11    Cu6     1.810   .     S
O12    Cu6     1.810   .     S
C37    C38     1.433   .     A
C37    C42     1.426   .     A
C37    C47     1.426   .     A
C38    C39     1.428   .     A
C38    C50     1.426   .     A
C39    C40     1.431   .     A
C39    C46     1.424   .     A
C40    C41     1.428   .     A
C40    C43     1.424   .     A
C41    C42     1.433   .     A
C41    C54     1.426   .     A
C42    C51     1.426   .     A
C43    C44     1.389   .     A
C43    H13     1.074   .     S
C44    C45     1.397   .     A
C44    O13     1.396   .     S
C45    C46     1.389   .     A
C45    O14     1.396   .     S
C46    H14     1.074   .     S
C47    C48     1.388   .     A
C47    H15     1.074   .     S
C48    C49     1.359   .     A
C48    O15     1.382   .     S
C49    C50     1.388   .     A
C49    O16     1.382   .     S
C50    H16     1.074   .     S
C51    C52     1.388   .     A
C51    H17     1.074   .     S
C52    C53     1.359   .     A
C52    O17     1.382   .     S
C53    C54     1.388   .     A
C53    O18     1.382   .     S
C54    H18     1.074   .     S
O13    Zn3     1.798   .     S
O14    Zn3     1.798   .     S
O15    Cu7     1.810   1_545 S
O16    Cu7     1.810   1_545 S
O17    Cu3     1.810   .     S
O18    Cu3     1.810   .     S
C55    C56     1.431   1_655 A
C55    C60     1.428   .     A
C55    C65     1.424   .     A
C56    C55     1.431   1_455 A
C56    C57     1.428   .     A
C56    C68     1.424   .     A
C57    C58     1.433   .     A
C57    C64     1.426   .     A
C58    C59     1.426   1_455 A
C58    C61     1.426   .     A
C59    C58     1.426   1_655 A
C59    C60     1.433   .     A
C59    C72     1.426   .     A
C60    C69     1.426   .     A
C61    C62     1.388   .     A
C61    H19     1.074   .     S
C62    C63     1.359   .     A
C62    O19     1.382   .     S
C63    C64     1.388   .     A
C63    O20     1.382   .     S
C64    H20     1.074   .     S
C65    C66     1.389   .     A
C65    H21     1.074   .     S
C66    C67     1.397   1_655 A
C66    O21     1.396   .     S
C67    C66     1.397   1_455 A
C67    C68     1.389   .     A
C67    O22     1.396   .     S
C68    H22     1.074   .     S
C69    C70     1.388   .     A
C69    H23     1.074   .     S
C70    C71     1.359   .     A
C70    O23     1.382   .     S
C71    C72     1.388   .     A
C71    O24     1.382   .     S
C72    H24     1.074   .     S
O19    Cu5     1.810   .     S
O20    Cu5     1.810   .     S
O21    Zn4     1.798   1_655 S
O22    Zn4     1.798   .     S
O23    Cu4     1.810   .     S
O24    Cu4     1.810   .     S
C73    C74     1.433   .     A
C73    C78     1.428   .     A
C73    C83     1.426   .     A
C74    C75     1.426   .     A
C74    C86     1.426   .     A
C75    C76     1.433   .     A
C75    C82     1.426   .     A
C76    C77     1.428   .     A
C76    C79     1.426   .     A
C77    C78     1.431   .     A
C77    C90     1.424   .     A
C78    C87     1.424   .     A
C79    C80     1.388   .     A
C79    H25     1.074   .     S
C80    C81     1.359   .     A
C80    O25     1.382   .     S
C81    C82     1.388   .     A
C81    O26     1.382   1_556 S
C82    H26     1.074   1_556 S
C83    C84     1.388   .     A
C83    H27     1.074   .     S
C84    C85     1.359   .     A
C84    O27     1.382   .     S
C85    C86     1.388   .     A
C85    O28     1.382   1_556 S
C86    H28     1.074   1_556 S
C87    C88     1.389   .     A
C87    H29     1.074   .     S
C88    C89     1.397   .     A
C88    O29     1.396   .     S
C89    C90     1.389   .     A
C89    O30     1.396   .     S
C90    H30     1.074   .     S
O25    Cu8     1.810   1_556 S
O26    C81     1.382   1_554 S
O26    Cu8     1.810   .     S
H26    C82     1.074   1_554 S
O27    Cu1     1.810   1_556 S
O28    C85     1.382   1_554 S
O28    Cu1     1.810   .     S
H28    C86     1.074   1_554 S
O29    Zn4     1.798   .     S
O30    Zn4     1.798   .     S
C91    C92     1.431   1_655 A
C91    C96     1.428   .     A
C91    C101    1.424   .     A
C92    C91     1.431   1_455 A
C92    C93     1.428   .     A
C92    C104    1.424   .     A
C93    C94     1.433   .     A
C93    C100    1.426   .     A
C94    C95     1.426   1_455 A
C94    C97     1.426   .     A
C95    C94     1.426   1_655 A
C95    C96     1.433   .     A
C95    C108    1.426   .     A
C96    C105    1.426   .     A
C97    C98     1.388   .     A
C97    H31     1.074   .     S
C98    C99     1.359   .     A
C98    O31     1.382   .     S
C99    C100    1.388   .     A
C99    O32     1.382   .     S
C100   H32     1.074   .     S
C101   C102    1.389   .     A
C101   H33     1.074   .     S
C102   C103    1.397   1_655 A
C102   O33     1.396   .     S
C103   C102    1.397   1_455 A
C103   C104    1.389   .     A
C103   O34     1.396   .     S
C104   H34     1.074   .     S
C105   C106    1.388   .     A
C105   H35     1.074   .     S
C106   C107    1.359   .     A
C106   O35     1.382   .     S
C107   C108    1.388   .     A
C107   O36     1.382   .     S
C108   H36     1.074   .     S
O31    Cu6     1.810   .     S
O32    Cu6     1.810   .     S
O33    Zn1     1.798   1_655 S
O34    Zn1     1.798   .     S
O35    Cu2     1.810   .     S
O36    Cu2     1.810   .     S
C109   C110    1.433   .     A
C109   C114    1.428   .     A
C109   C119    1.426   .     A
C110   C111    1.426   .     A
C110   C122    1.426   .     A
C111   C112    1.433   .     A
C111   C118    1.426   .     A
C112   C113    1.428   .     A
C112   C115    1.426   .     A
C113   C114    1.431   .     A
C113   C126    1.424   .     A
C114   C123    1.424   .     A
C115   C116    1.388   .     A
C115   H37     1.074   .     S
C116   C117    1.359   .     A
C116   O37     1.382   .     S
C117   C118    1.388   .     A
C117   O38     1.382   .     S
C118   H38     1.074   .     S
C119   C120    1.388   .     A
C119   H39     1.074   .     S
C120   C121    1.359   .     A
C120   O39     1.382   .     S
C121   C122    1.388   .     A
C121   O40     1.382   .     S
C122   H40     1.074   .     S
C123   C124    1.389   .     A
C123   H41     1.074   .     S
C124   C125    1.397   .     A
C124   O41     1.396   .     S
C125   C126    1.389   .     A
C125   O42     1.396   .     S
C126   H42     1.074   .     S
O37    Cu3     1.810   .     S
O38    Cu3     1.810   .     S
O39    Cu7     1.810   .     S
O40    Cu7     1.810   .     S
O41    Zn2     1.798   .     S
O42    Zn2     1.798   .     S
C127   C128    1.431   .     A
C127   C132    1.428   .     A
C127   C137    1.424   .     A
C128   C129    1.428   .     A
C128   C140    1.424   .     A
C129   C130    1.433   .     A
C129   C136    1.426   .     A
C130   C131    1.426   .     A
C130   C133    1.426   .     A
C131   C132    1.433   .     A
C131   C144    1.426   .     A
C132   C141    1.426   .     A
C133   C134    1.388   .     A
C133   H43     1.074   .     S
C134   C135    1.359   .     A
C134   O43     1.382   .     S
C135   C136    1.388   .     A
C135   O44     1.382   .     S
C136   H44     1.074   .     S
C137   C138    1.389   .     A
C137   H45     1.074   .     S
C138   C139    1.397   .     A
C138   O45     1.396   .     S
C139   C140    1.389   .     A
C139   O46     1.396   .     S
C140   H46     1.074   .     S
C141   C142    1.388   .     A
C141   H47     1.074   .     S
C142   C143    1.359   .     A
C142   O47     1.382   .     S
C143   C144    1.388   .     A
C143   O48     1.382   .     S
C144   H48     1.074   .     S
O43    Cu4     1.810   .     S
O44    Cu4     1.810   .     S
O45    Zn3     1.798   .     S
O46    Zn3     1.798   .     S
O47    Cu5     1.810   .     S
O48    Cu5     1.810   .     S
Cu1    O3      1.810   1_554 S
Cu1    O27     1.810   1_554 S
Cu7    O16     1.810   1_565 S
Cu7    O15     1.810   1_565 S
Cu8    O6      1.810   1_545 S
Cu8    O25     1.810   1_554 S
Cu8    O5      1.810   1_544 S
Zn1    O33     1.798   1_455 S
Zn4    O21     1.798   1_455 S
