data_ths_Feoct_B_Cupln_DHBQ
_audit_creation_date              2023-08-06
_audit_creation_method            'Materials Studio'
_symmetry_space_group_name_H-M    'P1'
_symmetry_Int_Tables_number       1
_symmetry_cell_setting            triclinic
loop_
_symmetry_equiv_pos_as_xyz
  x,y,z
_cell_length_a                    12.8297
_cell_length_b                    12.9280
_cell_length_c                    29.8391
_cell_angle_alpha                 90.0000
_cell_angle_beta                  90.0000
_cell_angle_gamma                 90.0000
loop_
_atom_site_label
_atom_site_type_symbol
_atom_site_fract_x
_atom_site_fract_y
_atom_site_fract_z
_atom_site_U_iso_or_equiv
_atom_site_adp_type
_atom_site_occupancy
Fe1    Fe    0.00005   0.75001   0.06471   0.00000  Uiso   1.00
C1     C     0.55327   0.72870   0.35205   0.00000  Uiso   1.00
C2     C     0.61286   0.72960   0.30916   0.00000  Uiso   1.00
C3     C     0.55827   0.74607   0.26688   0.00000  Uiso   1.00
C4     C     0.44184   0.75390   0.26688   0.00000  Uiso   1.00
C5     C     0.38725   0.77038   0.30915   0.00000  Uiso   1.00
C6     C     0.44684   0.77130   0.35205   0.00000  Uiso   1.00
O1     O     0.58832   0.70180   0.38837   0.00000  Uiso   1.00
O2     O     0.70782   0.72798   0.30600   0.00000  Uiso   1.00
O3     O     0.61570   0.75591   0.23444   0.00000  Uiso   1.00
O4     O     0.38442   0.74405   0.23444   0.00000  Uiso   1.00
O5     O     0.29229   0.77200   0.30600   0.00000  Uiso   1.00
O6     O     0.41179   0.79822   0.38837   0.00000  Uiso   1.00
Fe2    Fe    0.50005   0.25001   0.56471   0.00000  Uiso   1.00
C7     C     0.05327   0.22870   0.85205   0.00000  Uiso   1.00
C8     C     0.11286   0.22961   0.80915   0.00000  Uiso   1.00
C9     C     0.05826   0.24608   0.76687   0.00000  Uiso   1.00
C10    C     0.94184   0.25390   0.76688   0.00000  Uiso   1.00
C11    C     0.88724   0.27037   0.80915   0.00000  Uiso   1.00
C12    C     0.94683   0.27129   0.85205   0.00000  Uiso   1.00
O7     O     0.08832   0.20180   0.88837   0.00000  Uiso   1.00
O8     O     0.20781   0.22798   0.80600   0.00000  Uiso   1.00
O9     O     0.11569   0.25592   0.73444   0.00000  Uiso   1.00
O10    O     0.88441   0.24405   0.73444   0.00000  Uiso   1.00
O11    O     0.79228   0.27197   0.80600   0.00000  Uiso   1.00
O12    O     0.91179   0.29821   0.88837   0.00000  Uiso   1.00
Fe3    Fe    0.00005   0.25001   0.93529   0.00000  Uiso   1.00
C13    C     0.05327   0.72871   0.14795   0.00000  Uiso   1.00
C14    C     0.11286   0.72962   0.19085   0.00000  Uiso   1.00
C15    C     0.05827   0.74608   0.23313   0.00000  Uiso   1.00
C16    C     0.94184   0.75390   0.23313   0.00000  Uiso   1.00
C17    C     0.88725   0.77037   0.19085   0.00000  Uiso   1.00
C18    C     0.94684   0.77130   0.14795   0.00000  Uiso   1.00
O13    O     0.08832   0.70180   0.11163   0.00000  Uiso   1.00
O14    O     0.20782   0.72801   0.19400   0.00000  Uiso   1.00
O15    O     0.11569   0.75591   0.26556   0.00000  Uiso   1.00
O16    O     0.88441   0.74405   0.26556   0.00000  Uiso   1.00
O17    O     0.79229   0.77198   0.19400   0.00000  Uiso   1.00
O18    O     0.91179   0.79821   0.11163   0.00000  Uiso   1.00
Fe4    Fe    0.50005   0.75001   0.43529   0.00000  Uiso   1.00
C19    C     0.55327   0.22871   0.64795   0.00000  Uiso   1.00
C20    C     0.61286   0.22961   0.69085   0.00000  Uiso   1.00
C21    C     0.55826   0.24608   0.73313   0.00000  Uiso   1.00
C22    C     0.44184   0.25390   0.73312   0.00000  Uiso   1.00
C23    C     0.38724   0.27038   0.69084   0.00000  Uiso   1.00
C24    C     0.44683   0.27130   0.64795   0.00000  Uiso   1.00
O19    O     0.58832   0.20180   0.61163   0.00000  Uiso   1.00
O20    O     0.70781   0.22798   0.69400   0.00000  Uiso   1.00
O21    O     0.61569   0.25591   0.76556   0.00000  Uiso   1.00
O22    O     0.38441   0.24405   0.76556   0.00000  Uiso   1.00
O23    O     0.29228   0.27198   0.69400   0.00000  Uiso   1.00
O24    O     0.41179   0.29821   0.61163   0.00000  Uiso   1.00
C25    C     0.90954   0.46557   0.02495   0.00000  Uiso   1.00
C26    C     0.95228   0.40213   0.99138   0.00000  Uiso   1.00
C27    C     0.04419   0.43763   0.96620   0.00000  Uiso   1.00
C28    C     0.09056   0.53445   0.97504   0.00000  Uiso   1.00
C29    C     0.04782   0.59789   0.00861   0.00000  Uiso   1.00
C30    C     0.95591   0.56239   0.03380   0.00000  Uiso   1.00
H1     H     0.84194   0.44042   0.04375   0.00000  Uiso   1.00
O25    O     0.91624   0.31269   0.98082   0.00000  Uiso   1.00
O26    O     0.07803   0.37539   0.93657   0.00000  Uiso   1.00
H2     H     0.15816   0.55960   0.95625   0.00000  Uiso   1.00
O27    O     0.08386   0.68733   0.01918   0.00000  Uiso   1.00
O28    O     0.92208   0.62463   0.06343   0.00000  Uiso   1.00
Cu1    Cu    0.75005   0.74996   0.25000   0.00000  Uiso   1.00
C31    C     0.40954   0.46557   0.47504   0.00000  Uiso   1.00
C32    C     0.45591   0.56239   0.46620   0.00000  Uiso   1.00
C33    C     0.54782   0.59789   0.49139   0.00000  Uiso   1.00
C34    C     0.59056   0.53445   0.52496   0.00000  Uiso   1.00
C35    C     0.54419   0.43762   0.53380   0.00000  Uiso   1.00
C36    C     0.45228   0.40213   0.50862   0.00000  Uiso   1.00
H3     H     0.34194   0.44042   0.45625   0.00000  Uiso   1.00
O29    O     0.42208   0.62463   0.43657   0.00000  Uiso   1.00
O30    O     0.58386   0.68733   0.48082   0.00000  Uiso   1.00
H4     H     0.65816   0.55960   0.54375   0.00000  Uiso   1.00
O31    O     0.57803   0.37539   0.56343   0.00000  Uiso   1.00
O32    O     0.41624   0.31268   0.51918   0.00000  Uiso   1.00
Cu2    Cu    0.75005   0.24996   0.75000   0.00000  Uiso   1.00
Cu3    Cu    0.25005   0.24998   0.75000   0.00000  Uiso   1.00
Cu4    Cu    0.25006   0.74998   0.25000   0.00000  Uiso   1.00
C37    C     0.40954   0.96557   0.52495   0.00000  Uiso   1.00
C38    C     0.45591   0.06239   0.53380   0.00000  Uiso   1.00
C39    C     0.54782   0.09789   0.50862   0.00000  Uiso   1.00
C40    C     0.59057   0.03445   0.47504   0.00000  Uiso   1.00
C41    C     0.54420   0.93762   0.46620   0.00000  Uiso   1.00
C42    C     0.45228   0.90213   0.49138   0.00000  Uiso   1.00
H5     H     0.34194   0.94042   0.54375   0.00000  Uiso   1.00
O33    O     0.42208   0.12463   0.56343   0.00000  Uiso   1.00
O34    O     0.58386   0.18733   0.51918   0.00000  Uiso   1.00
H6     H     0.65816   0.05960   0.45625   0.00000  Uiso   1.00
O35    O     0.57803   0.87539   0.43657   0.00000  Uiso   1.00
O36    O     0.41624   0.81269   0.48082   0.00000  Uiso   1.00
C43    C     0.90954   0.96557   0.97505   0.00000  Uiso   1.00
C44    C     0.95591   0.06239   0.96620   0.00000  Uiso   1.00
C45    C     0.04782   0.09789   0.99139   0.00000  Uiso   1.00
C46    C     0.09056   0.03445   0.02496   0.00000  Uiso   1.00
C47    C     0.04419   0.93763   0.03380   0.00000  Uiso   1.00
C48    C     0.95228   0.90213   0.00862   0.00000  Uiso   1.00
H7     H     0.84194   0.94043   0.95625   0.00000  Uiso   1.00
O37    O     0.92208   0.12463   0.93657   0.00000  Uiso   1.00
O38    O     0.08386   0.18733   0.98082   0.00000  Uiso   1.00
H8     H     0.15816   0.05960   0.04375   0.00000  Uiso   1.00
O39    O     0.07803   0.87539   0.06343   0.00000  Uiso   1.00
O40    O     0.91624   0.81269   0.01918   0.00000  Uiso   1.00
loop_
_geom_bond_atom_site_label_1
_geom_bond_atom_site_label_2
_geom_bond_distance
_geom_bond_site_symmetry_2
_ccdc_geom_bond_type
Fe1    O13     1.906   .     S
Fe1    O18     1.906   1_455 S
Fe1    O27     1.913   .     S
Fe1    O28     1.905   1_455 S
Fe1    O39     1.905   .     S
Fe1    O40     1.913   1_455 S
C1     C2      1.491   .     S
C1     C6      1.472   .     S
C1     O1      1.224   .     D
C2     C3      1.459   .     S
C2     O2      1.222   .     D
C3     C4      1.497   .     S
C3     O3      1.223   .     D
C4     C5      1.459   .     S
C4     O4      1.223   .     D
C5     C6      1.491   .     S
C5     O5      1.222   .     D
C6     O6      1.224   .     D
O1     Fe4     1.906   .     S
O2     Cu1     1.780   .     S
O3     Cu1     1.787   .     S
O4     Cu4     1.787   .     S
O5     Cu4     1.780   .     S
O6     Fe4     1.906   .     S
Fe2    O19     1.906   .     S
Fe2    O24     1.906   .     S
Fe2    O31     1.905   .     S
Fe2    O32     1.913   .     S
Fe2    O33     1.905   .     S
Fe2    O34     1.913   .     S
C7     C8      1.491   .     S
C7     C12     1.472   1_455 S
C7     O7      1.224   .     D
C8     C9      1.459   .     S
C8     O8      1.222   .     D
C9     C10     1.497   1_455 S
C9     O9      1.223   .     D
C10    C9      1.497   1_655 S
C10    C11     1.459   .     S
C10    O10     1.223   .     D
C11    C12     1.491   .     S
C11    O11     1.222   .     D
C12    C7      1.472   1_655 S
C12    O12     1.224   .     D
O7     Fe3     1.906   .     S
O8     Cu3     1.780   .     S
O9     Cu3     1.787   .     S
O10    Cu2     1.787   .     S
O11    Cu2     1.780   .     S
O12    Fe3     1.906   1_655 S
Fe3    O12     1.906   1_455 S
Fe3    O25     1.913   1_455 S
Fe3    O26     1.905   .     S
Fe3    O37     1.905   1_455 S
Fe3    O38     1.913   .     S
C13    C14     1.491   .     S
C13    C18     1.472   1_455 S
C13    O13     1.224   .     D
C14    C15     1.459   .     S
C14    O14     1.222   .     D
C15    C16     1.497   1_455 S
C15    O15     1.223   .     D
C16    C15     1.497   1_655 S
C16    C17     1.459   .     S
C16    O16     1.223   .     D
C17    C18     1.491   .     S
C17    O17     1.222   .     D
C18    C13     1.472   1_655 S
C18    O18     1.224   .     D
O14    Cu4     1.780   .     S
O15    Cu4     1.787   .     S
O16    Cu1     1.787   .     S
O17    Cu1     1.780   .     S
O18    Fe1     1.906   1_655 S
Fe4    O29     1.905   .     S
Fe4    O30     1.913   .     S
Fe4    O35     1.905   .     S
Fe4    O36     1.913   .     S
C19    C20     1.491   .     S
C19    C24     1.472   .     S
C19    O19     1.224   .     D
C20    C21     1.459   .     S
C20    O20     1.222   .     D
C21    C22     1.497   .     S
C21    O21     1.223   .     D
C22    C23     1.459   .     S
C22    O22     1.223   .     D
C23    C24     1.491   .     S
C23    O23     1.222   .     D
C24    O24     1.224   .     D
O20    Cu2     1.780   .     S
O21    Cu2     1.787   .     S
O22    Cu3     1.787   .     S
O23    Cu3     1.780   .     S
C25    C26     1.406   1_554 A
C25    C30     1.411   .     A
C25    H1      1.083   .     S
C26    C25     1.406   1_556 A
C26    C27     1.472   1_655 S
C26    O25     1.285   .     A
C27    C26     1.472   1_455 S
C27    C28     1.411   .     A
C27    O26     1.272   .     A
C28    C29     1.406   1_556 A
C28    H2      1.083   .     S
C29    C28     1.406   1_554 A
C29    C30     1.472   1_455 S
C29    O27     1.285   .     A
C30    C29     1.472   1_655 S
C30    O28     1.272   .     A
O25    Fe3     1.913   1_655 S
O28    Fe1     1.905   1_655 S
C31    C32     1.411   .     A
C31    C36     1.406   .     A
C31    H3      1.083   .     S
C32    C33     1.472   .     S
C32    O29     1.272   .     A
C33    C34     1.406   .     A
C33    O30     1.285   .     A
C34    C35     1.411   .     A
C34    H4      1.083   .     S
C35    C36     1.472   .     S
C35    O31     1.272   .     A
C36    O32     1.285   .     A
C37    C38     1.411   1_565 A
C37    C42     1.406   .     A
C37    H5      1.083   .     S
C38    C37     1.411   1_545 A
C38    C39     1.472   .     S
C38    O33     1.272   .     A
C39    C40     1.406   .     A
C39    O34     1.285   .     A
C40    C41     1.411   1_545 A
C40    H6      1.083   .     S
C41    C40     1.411   1_565 A
C41    C42     1.472   .     S
C41    O35     1.272   .     A
C42    O36     1.285   .     A
C43    C44     1.411   1_565 A
C43    C48     1.406   1_556 A
C43    H7      1.083   .     S
C44    C43     1.411   1_545 A
C44    C45     1.472   1_655 S
C44    O37     1.272   .     A
C45    C44     1.472   1_455 S
C45    C46     1.406   1_556 A
C45    O38     1.285   .     A
C46    C45     1.406   1_554 A
C46    C47     1.411   1_545 A
C46    H8      1.083   .     S
C47    C46     1.411   1_565 A
C47    C48     1.472   1_455 S
C47    O39     1.272   .     A
C48    C47     1.472   1_655 S
C48    C43     1.406   1_554 A
C48    O40     1.285   .     A
O37    Fe3     1.905   1_655 S
O40    Fe1     1.913   1_655 S
