data_ths_Feoct_TN_Cupln_DHBQ
_audit_creation_date              2023-08-06
_audit_creation_method            'Materials Studio'
_symmetry_space_group_name_H-M    'P1'
_symmetry_Int_Tables_number       1
_symmetry_cell_setting            triclinic
loop_
_symmetry_equiv_pos_as_xyz
  x,y,z
_cell_length_a                    32.4496
_cell_length_b                    12.9287
_cell_length_c                    63.8220
_cell_angle_alpha                 90.0000
_cell_angle_beta                  90.0009
_cell_angle_gamma                 90.0000
loop_
_atom_site_label
_atom_site_type_symbol
_atom_site_fract_x
_atom_site_fract_y
_atom_site_fract_z
_atom_site_U_iso_or_equiv
_atom_site_adp_type
_atom_site_occupancy
Fe1    Fe    0.00137   0.75000   0.03557   0.00000  Uiso   1.00
C1     C     0.47797   0.76069   0.34015   0.00000  Uiso   1.00
C2     C     0.52471   0.73932   0.34015   0.00000  Uiso   1.00
C3     C     0.54969   0.74109   0.31863   0.00000  Uiso   1.00
C4     C     0.52622   0.74817   0.29751   0.00000  Uiso   1.00
C5     C     0.47644   0.75183   0.29751   0.00000  Uiso   1.00
C6     C     0.45298   0.75892   0.31863   0.00000  Uiso   1.00
C7     C     0.55064   0.75182   0.27909   0.00000  Uiso   1.00
C8     C     0.59903   0.74952   0.27784   0.00000  Uiso   1.00
C9     C     0.62095   0.74333   0.29823   0.00000  Uiso   1.00
C10    C     0.59315   0.74000   0.31803   0.00000  Uiso   1.00
C11    C     0.45925   0.78033   0.35968   0.00000  Uiso   1.00
C12    C     0.48014   0.77118   0.38150   0.00000  Uiso   1.00
C13    C     0.52255   0.72881   0.38149   0.00000  Uiso   1.00
C14    C     0.54344   0.71966   0.35967   0.00000  Uiso   1.00
C15    C     0.40952   0.76000   0.31803   0.00000  Uiso   1.00
C16    C     0.38171   0.75667   0.29823   0.00000  Uiso   1.00
C17    C     0.40363   0.75049   0.27784   0.00000  Uiso   1.00
C18    C     0.45201   0.74818   0.27909   0.00000  Uiso   1.00
C19    C     0.37992   0.74674   0.25927   0.00000  Uiso   1.00
C20    C     0.33170   0.74878   0.25887   0.00000  Uiso   1.00
C21    C     0.31094   0.75471   0.27862   0.00000  Uiso   1.00
C22    C     0.33830   0.75857   0.29859   0.00000  Uiso   1.00
C23    C     0.66436   0.74144   0.29858   0.00000  Uiso   1.00
C24    C     0.69172   0.74528   0.27861   0.00000  Uiso   1.00
C25    C     0.67095   0.75122   0.25886   0.00000  Uiso   1.00
C26    C     0.62273   0.75327   0.25927   0.00000  Uiso   1.00
H1     H     0.53518   0.75766   0.26417   0.00000  Uiso   1.00
H2     H     0.60994   0.73850   0.33259   0.00000  Uiso   1.00
H3     H     0.42718   0.80206   0.36013   0.00000  Uiso   1.00
H4     H     0.57550   0.69793   0.36012   0.00000  Uiso   1.00
H5     H     0.39273   0.76151   0.33260   0.00000  Uiso   1.00
H6     H     0.46747   0.74235   0.26417   0.00000  Uiso   1.00
H7     H     0.39586   0.74209   0.24441   0.00000  Uiso   1.00
O1     O     0.30728   0.74590   0.24348   0.00000  Uiso   1.00
O2     O     0.27220   0.75598   0.27707   0.00000  Uiso   1.00
H8     H     0.32285   0.76291   0.31359   0.00000  Uiso   1.00
H9     H     0.67981   0.73709   0.31358   0.00000  Uiso   1.00
O3     O     0.73046   0.74400   0.27706   0.00000  Uiso   1.00
O4     O     0.69537   0.75409   0.24347   0.00000  Uiso   1.00
H10    H     0.60679   0.75791   0.24441   0.00000  Uiso   1.00
C27    C     0.54127   0.70343   0.40065   0.00000  Uiso   1.00
C28    C     0.52097   0.72320   0.42230   0.00000  Uiso   1.00
C29    C     0.48174   0.77680   0.42230   0.00000  Uiso   1.00
C30    C     0.46144   0.79657   0.40066   0.00000  Uiso   1.00
H11    H     0.57206   0.67135   0.40046   0.00000  Uiso   1.00
O5     O     0.53492   0.70048   0.44012   0.00000  Uiso   1.00
O6     O     0.46781   0.79952   0.44013   0.00000  Uiso   1.00
H12    H     0.43064   0.82864   0.40047   0.00000  Uiso   1.00
Fe2    Fe    0.50140   0.25000   0.53557   0.00000  Uiso   1.00
C31    C     0.97807   0.26069   0.84015   0.00000  Uiso   1.00
C32    C     0.02481   0.23932   0.84015   0.00000  Uiso   1.00
C33    C     0.04979   0.24109   0.81863   0.00000  Uiso   1.00
C34    C     0.02633   0.24817   0.79751   0.00000  Uiso   1.00
C35    C     0.97655   0.25183   0.79750   0.00000  Uiso   1.00
C36    C     0.95309   0.25892   0.81863   0.00000  Uiso   1.00
C37    C     0.05076   0.25182   0.77909   0.00000  Uiso   1.00
C38    C     0.09914   0.24952   0.77784   0.00000  Uiso   1.00
C39    C     0.12106   0.24333   0.79823   0.00000  Uiso   1.00
C40    C     0.09325   0.24000   0.81803   0.00000  Uiso   1.00
C41    C     0.95934   0.28034   0.85967   0.00000  Uiso   1.00
C42    C     0.98022   0.27119   0.88149   0.00000  Uiso   1.00
C43    C     0.02263   0.22882   0.88150   0.00000  Uiso   1.00
C44    C     0.04353   0.21967   0.85968   0.00000  Uiso   1.00
C45    C     0.90963   0.26000   0.81802   0.00000  Uiso   1.00
C46    C     0.88183   0.25667   0.79823   0.00000  Uiso   1.00
C47    C     0.90374   0.25048   0.77784   0.00000  Uiso   1.00
C48    C     0.95213   0.24818   0.77909   0.00000  Uiso   1.00
C49    C     0.88004   0.24674   0.75927   0.00000  Uiso   1.00
C50    C     0.83182   0.24877   0.75886   0.00000  Uiso   1.00
C51    C     0.81105   0.25471   0.77861   0.00000  Uiso   1.00
C52    C     0.83841   0.25856   0.79858   0.00000  Uiso   1.00
C53    C     0.16448   0.24143   0.79859   0.00000  Uiso   1.00
C54    C     0.19183   0.24528   0.77862   0.00000  Uiso   1.00
C55    C     0.17107   0.25122   0.75887   0.00000  Uiso   1.00
C56    C     0.12285   0.25327   0.75927   0.00000  Uiso   1.00
H13    H     0.03530   0.25766   0.76417   0.00000  Uiso   1.00
H14    H     0.11004   0.23849   0.83260   0.00000  Uiso   1.00
H15    H     0.92728   0.30207   0.86012   0.00000  Uiso   1.00
H16    H     0.07559   0.19795   0.86013   0.00000  Uiso   1.00
H17    H     0.89284   0.26150   0.83259   0.00000  Uiso   1.00
H18    H     0.96759   0.24235   0.76417   0.00000  Uiso   1.00
H19    H     0.89598   0.24209   0.74441   0.00000  Uiso   1.00
O7     O     0.80740   0.24590   0.74347   0.00000  Uiso   1.00
O8     O     0.77231   0.25598   0.77706   0.00000  Uiso   1.00
H20    H     0.82296   0.26291   0.81358   0.00000  Uiso   1.00
H21    H     0.17993   0.23709   0.81359   0.00000  Uiso   1.00
O9     O     0.23058   0.24400   0.77707   0.00000  Uiso   1.00
O10    O     0.19549   0.25408   0.74348   0.00000  Uiso   1.00
H22    H     0.10691   0.25791   0.74441   0.00000  Uiso   1.00
C57    C     0.04134   0.20344   0.90066   0.00000  Uiso   1.00
C58    C     0.02103   0.22320   0.92230   0.00000  Uiso   1.00
C59    C     0.98180   0.27680   0.92230   0.00000  Uiso   1.00
C60    C     0.96151   0.29658   0.90065   0.00000  Uiso   1.00
H23    H     0.07213   0.17136   0.90047   0.00000  Uiso   1.00
O11    O     0.03497   0.20048   0.94013   0.00000  Uiso   1.00
O12    O     0.96785   0.29953   0.94012   0.00000  Uiso   1.00
H24    H     0.93071   0.32865   0.90046   0.00000  Uiso   1.00
Fe3    Fe    0.00140   0.25000   0.96443   0.00000  Uiso   1.00
C61    C     0.97796   0.76068   0.15985   0.00000  Uiso   1.00
C62    C     0.02470   0.73932   0.15985   0.00000  Uiso   1.00
C63    C     0.04968   0.74109   0.18137   0.00000  Uiso   1.00
C64    C     0.02622   0.74817   0.20249   0.00000  Uiso   1.00
C65    C     0.97644   0.75183   0.20249   0.00000  Uiso   1.00
C66    C     0.95298   0.75892   0.18137   0.00000  Uiso   1.00
C67    C     0.05064   0.75182   0.22091   0.00000  Uiso   1.00
C68    C     0.09903   0.74952   0.22216   0.00000  Uiso   1.00
C69    C     0.12094   0.74334   0.20177   0.00000  Uiso   1.00
C70    C     0.09314   0.74000   0.18198   0.00000  Uiso   1.00
C71    C     0.95924   0.78033   0.14032   0.00000  Uiso   1.00
C72    C     0.98014   0.77118   0.11850   0.00000  Uiso   1.00
C73    C     0.02255   0.72881   0.11851   0.00000  Uiso   1.00
C74    C     0.04343   0.71966   0.14033   0.00000  Uiso   1.00
C75    C     0.90952   0.76000   0.18197   0.00000  Uiso   1.00
C76    C     0.88171   0.75667   0.20177   0.00000  Uiso   1.00
C77    C     0.90363   0.75049   0.22216   0.00000  Uiso   1.00
C78    C     0.95201   0.74818   0.22091   0.00000  Uiso   1.00
C79    C     0.87992   0.74674   0.24073   0.00000  Uiso   1.00
C80    C     0.83170   0.74878   0.24113   0.00000  Uiso   1.00
C81    C     0.81094   0.75471   0.22138   0.00000  Uiso   1.00
C82    C     0.83829   0.75857   0.20141   0.00000  Uiso   1.00
C83    C     0.16436   0.74144   0.20142   0.00000  Uiso   1.00
C84    C     0.19172   0.74529   0.22139   0.00000  Uiso   1.00
C85    C     0.17095   0.75122   0.24114   0.00000  Uiso   1.00
C86    C     0.12273   0.75327   0.24073   0.00000  Uiso   1.00
H25    H     0.03518   0.75766   0.23583   0.00000  Uiso   1.00
H26    H     0.10994   0.73850   0.16741   0.00000  Uiso   1.00
H27    H     0.92718   0.80205   0.13987   0.00000  Uiso   1.00
H28    H     0.07550   0.69793   0.13988   0.00000  Uiso   1.00
H29    H     0.89273   0.76151   0.16740   0.00000  Uiso   1.00
H30    H     0.96747   0.74235   0.23583   0.00000  Uiso   1.00
H31    H     0.89586   0.74209   0.25559   0.00000  Uiso   1.00
O13    O     0.80728   0.74590   0.25652   0.00000  Uiso   1.00
O14    O     0.77220   0.75599   0.22293   0.00000  Uiso   1.00
H32    H     0.82285   0.76292   0.18641   0.00000  Uiso   1.00
H33    H     0.17981   0.73709   0.18642   0.00000  Uiso   1.00
O15    O     0.23046   0.74400   0.22294   0.00000  Uiso   1.00
O16    O     0.19537   0.75409   0.25653   0.00000  Uiso   1.00
H34    H     0.10679   0.75791   0.25559   0.00000  Uiso   1.00
C87    C     0.04126   0.70343   0.09935   0.00000  Uiso   1.00
C88    C     0.02097   0.72320   0.07770   0.00000  Uiso   1.00
C89    C     0.98174   0.77680   0.07770   0.00000  Uiso   1.00
C90    C     0.96143   0.79657   0.09934   0.00000  Uiso   1.00
H35    H     0.07206   0.67135   0.09954   0.00000  Uiso   1.00
O17    O     0.03492   0.70048   0.05988   0.00000  Uiso   1.00
O18    O     0.96780   0.79952   0.05987   0.00000  Uiso   1.00
H36    H     0.93064   0.82864   0.09953   0.00000  Uiso   1.00
Fe4    Fe    0.50137   0.75000   0.46443   0.00000  Uiso   1.00
C91    C     0.47806   0.26069   0.65985   0.00000  Uiso   1.00
C92    C     0.52480   0.23932   0.65985   0.00000  Uiso   1.00
C93    C     0.54979   0.24109   0.68137   0.00000  Uiso   1.00
C94    C     0.52633   0.24817   0.70249   0.00000  Uiso   1.00
C95    C     0.47655   0.25183   0.70249   0.00000  Uiso   1.00
C96    C     0.45309   0.25892   0.68137   0.00000  Uiso   1.00
C97    C     0.55076   0.25182   0.72091   0.00000  Uiso   1.00
C98    C     0.59914   0.24952   0.72216   0.00000  Uiso   1.00
C99    C     0.62106   0.24333   0.70177   0.00000  Uiso   1.00
C100   C     0.59325   0.24000   0.68197   0.00000  Uiso   1.00
C101   C     0.45933   0.28034   0.64033   0.00000  Uiso   1.00
C102   C     0.48022   0.27119   0.61850   0.00000  Uiso   1.00
C103   C     0.52263   0.22882   0.61850   0.00000  Uiso   1.00
C104   C     0.54353   0.21967   0.64032   0.00000  Uiso   1.00
C105   C     0.40962   0.26000   0.68197   0.00000  Uiso   1.00
C106   C     0.38182   0.25667   0.70177   0.00000  Uiso   1.00
C107   C     0.40374   0.25048   0.72216   0.00000  Uiso   1.00
C108   C     0.45213   0.24818   0.72091   0.00000  Uiso   1.00
C109   C     0.38004   0.24673   0.74073   0.00000  Uiso   1.00
C110   C     0.33182   0.24877   0.74114   0.00000  Uiso   1.00
C111   C     0.31105   0.25471   0.72139   0.00000  Uiso   1.00
C112   C     0.33841   0.25856   0.70142   0.00000  Uiso   1.00
C113   C     0.66447   0.24143   0.70141   0.00000  Uiso   1.00
C114   C     0.69183   0.24528   0.72138   0.00000  Uiso   1.00
C115   C     0.67107   0.25121   0.74113   0.00000  Uiso   1.00
C116   C     0.62285   0.25326   0.74073   0.00000  Uiso   1.00
H37    H     0.53530   0.25766   0.73583   0.00000  Uiso   1.00
H38    H     0.61004   0.23850   0.66740   0.00000  Uiso   1.00
H39    H     0.42727   0.30207   0.63988   0.00000  Uiso   1.00
H40    H     0.57559   0.19795   0.63987   0.00000  Uiso   1.00
H41    H     0.39283   0.26150   0.66741   0.00000  Uiso   1.00
H42    H     0.46759   0.24234   0.73583   0.00000  Uiso   1.00
H43    H     0.39598   0.24209   0.75559   0.00000  Uiso   1.00
O19    O     0.30740   0.24590   0.75653   0.00000  Uiso   1.00
O20    O     0.27231   0.25598   0.72294   0.00000  Uiso   1.00
H44    H     0.32296   0.26291   0.68642   0.00000  Uiso   1.00
H45    H     0.67992   0.23709   0.68641   0.00000  Uiso   1.00
O21    O     0.73057   0.24400   0.72293   0.00000  Uiso   1.00
O22    O     0.69549   0.25408   0.75652   0.00000  Uiso   1.00
H46    H     0.60691   0.25791   0.75559   0.00000  Uiso   1.00
C117   C     0.54133   0.20343   0.59934   0.00000  Uiso   1.00
C118   C     0.52103   0.22320   0.57770   0.00000  Uiso   1.00
C119   C     0.48180   0.27680   0.57770   0.00000  Uiso   1.00
C120   C     0.46151   0.29657   0.59935   0.00000  Uiso   1.00
H47    H     0.57213   0.17136   0.59953   0.00000  Uiso   1.00
O23    O     0.53497   0.20048   0.55987   0.00000  Uiso   1.00
O24    O     0.46785   0.29953   0.55988   0.00000  Uiso   1.00
H48    H     0.43071   0.32865   0.59954   0.00000  Uiso   1.00
C121   C     0.96616   0.46109   0.01123   0.00000  Uiso   1.00
C122   C     0.98249   0.40253   0.99374   0.00000  Uiso   1.00
C123   C     0.01833   0.44194   0.98229   0.00000  Uiso   1.00
C124   C     0.03660   0.53892   0.98877   0.00000  Uiso   1.00
C125   C     0.02028   0.59747   0.00626   0.00000  Uiso   1.00
C126   C     0.98444   0.55806   0.01771   0.00000  Uiso   1.00
H49    H     0.93969   0.43163   0.01963   0.00000  Uiso   1.00
O25    O     0.96820   0.31466   0.98680   0.00000  Uiso   1.00
O26    O     0.03078   0.38338   0.96681   0.00000  Uiso   1.00
H50    H     0.06308   0.56837   0.98037   0.00000  Uiso   1.00
O27    O     0.03457   0.68534   0.01320   0.00000  Uiso   1.00
O28    O     0.97199   0.61663   0.03319   0.00000  Uiso   1.00
Cu1    Cu    0.75133   0.74997   0.25000   0.00000  Uiso   1.00
C127   C     0.46617   0.46108   0.48877   0.00000  Uiso   1.00
C128   C     0.48445   0.55806   0.48229   0.00000  Uiso   1.00
C129   C     0.52029   0.59747   0.49374   0.00000  Uiso   1.00
C130   C     0.53661   0.53892   0.51123   0.00000  Uiso   1.00
C131   C     0.51833   0.44194   0.51771   0.00000  Uiso   1.00
C132   C     0.48249   0.40253   0.50626   0.00000  Uiso   1.00
H51    H     0.43969   0.43163   0.48036   0.00000  Uiso   1.00
O29    O     0.47199   0.61662   0.46681   0.00000  Uiso   1.00
O30    O     0.53457   0.68534   0.48680   0.00000  Uiso   1.00
H52    H     0.56308   0.56837   0.51964   0.00000  Uiso   1.00
O31    O     0.53078   0.38338   0.53319   0.00000  Uiso   1.00
O32    O     0.46820   0.31466   0.51319   0.00000  Uiso   1.00
Cu2    Cu    0.75144   0.24997   0.75000   0.00000  Uiso   1.00
Cu3    Cu    0.25144   0.24997   0.75000   0.00000  Uiso   1.00
Cu4    Cu    0.25133   0.74997   0.25000   0.00000  Uiso   1.00
C133   C     0.46617   0.96109   0.51123   0.00000  Uiso   1.00
C134   C     0.48446   0.05806   0.51772   0.00000  Uiso   1.00
C135   C     0.52029   0.09747   0.50626   0.00000  Uiso   1.00
C136   C     0.53660   0.03891   0.48877   0.00000  Uiso   1.00
C137   C     0.51831   0.94194   0.48228   0.00000  Uiso   1.00
C138   C     0.48248   0.90253   0.49374   0.00000  Uiso   1.00
H53    H     0.43971   0.93164   0.51965   0.00000  Uiso   1.00
O33    O     0.47202   0.11662   0.53320   0.00000  Uiso   1.00
O34    O     0.53458   0.18534   0.51319   0.00000  Uiso   1.00
H54    H     0.56307   0.06836   0.48035   0.00000  Uiso   1.00
O35    O     0.53076   0.88338   0.46680   0.00000  Uiso   1.00
O36    O     0.46819   0.81466   0.48681   0.00000  Uiso   1.00
C139   C     0.96617   0.96109   0.98877   0.00000  Uiso   1.00
C140   C     0.98446   0.05806   0.98228   0.00000  Uiso   1.00
C141   C     0.02029   0.09747   0.99374   0.00000  Uiso   1.00
C142   C     0.03660   0.03892   0.01123   0.00000  Uiso   1.00
C143   C     0.01831   0.94194   0.01772   0.00000  Uiso   1.00
C144   C     0.98248   0.90253   0.00626   0.00000  Uiso   1.00
H55    H     0.93971   0.93164   0.98035   0.00000  Uiso   1.00
O37    O     0.97202   0.11663   0.96680   0.00000  Uiso   1.00
O38    O     0.03458   0.18534   0.98681   0.00000  Uiso   1.00
H56    H     0.06306   0.06837   0.01965   0.00000  Uiso   1.00
O39    O     0.03075   0.88338   0.03320   0.00000  Uiso   1.00
O40    O     0.96819   0.81466   0.01319   0.00000  Uiso   1.00
loop_
_geom_bond_atom_site_label_1
_geom_bond_atom_site_label_2
_geom_bond_distance
_geom_bond_site_symmetry_2
_ccdc_geom_bond_type
Fe1    O17     2.001   .     S
Fe1    O18     2.001   1_455 S
Fe1    O27     1.974   .     S
Fe1    O28     1.976   1_455 S
Fe1    O39     1.976   .     S
Fe1    O40     1.974   1_455 S
C1     C2      1.542   .     S
C1     C6      1.595   .     S
C1     C11     1.410   .     D
C2     C3      1.595   .     S
C2     C14     1.410   .     D
C3     C4      1.551   .     S
C3     C10     1.411   .     D
C4     C5      1.616   .     S
C4     C7      1.418   .     D
C5     C6      1.551   .     S
C5     C18     1.418   .     D
C6     C15     1.411   .     D
C7     C8      1.572   .     S
C7     H1      1.079   .     S
C8     C9      1.485   .     S
C8     C26     1.414   .     D
C9     C10     1.553   .     S
C9     C23     1.409   .     D
C10    H2      1.078   .     S
C11    C12     1.553   .     S
C11    H3      1.078   .     S
C12    C13     1.481   .     S
C12    C30     1.404   .     D
C13    C14     1.553   .     S
C13    C27     1.404   .     D
C14    H4      1.078   .     S
C15    C16     1.553   .     S
C15    H5      1.078   .     S
C16    C17     1.485   .     S
C16    C22     1.409   .     D
C17    C18     1.572   .     S
C17    C19     1.414   .     D
C18    H6      1.079   .     S
C19    C20     1.565   .     S
C19    H7      1.082   .     S
C20    C21     1.431   .     S
C20    O1      1.262   .     D
C21    C22     1.554   .     S
C21    O2      1.261   .     D
C22    H8      1.082   .     S
C23    C24     1.554   .     S
C23    H9      1.082   .     S
C24    C25     1.431   .     S
C24    O3      1.261   .     D
C25    C26     1.565   .     S
C25    O4      1.262   .     D
C26    H10     1.082   .     S
O1     Cu4     1.864   .     S
O2     Cu4     1.857   .     S
O3     Cu1     1.857   .     S
O4     Cu1     1.864   .     S
C27    C28     1.551   .     S
C27    H11     1.082   .     S
C28    C29     1.449   .     S
C28    O5      1.259   .     D
C29    C30     1.552   .     S
C29    O6      1.259   .     D
C30    H12     1.082   .     S
O5     Fe4     2.001   .     S
O6     Fe4     2.001   .     S
Fe2    O23     2.001   .     S
Fe2    O24     2.001   .     S
Fe2    O31     1.976   .     S
Fe2    O32     1.974   .     S
Fe2    O33     1.976   .     S
Fe2    O34     1.974   .     S
C31    C32     1.542   1_655 S
C31    C36     1.595   .     S
C31    C41     1.410   .     D
C32    C31     1.542   1_455 S
C32    C33     1.595   .     S
C32    C44     1.410   .     D
C33    C34     1.551   .     S
C33    C40     1.411   .     D
C34    C35     1.616   1_455 S
C34    C37     1.418   .     D
C35    C34     1.616   1_655 S
C35    C36     1.551   .     S
C35    C48     1.418   .     D
C36    C45     1.411   .     D
C37    C38     1.572   .     S
C37    H13     1.079   .     S
C38    C39     1.485   .     S
C38    C56     1.414   .     D
C39    C40     1.553   .     S
C39    C53     1.409   .     D
C40    H14     1.078   .     S
C41    C42     1.553   .     S
C41    H15     1.078   .     S
C42    C43     1.481   1_655 S
C42    C60     1.404   .     D
C43    C42     1.481   1_455 S
C43    C44     1.553   .     S
C43    C57     1.404   .     D
C44    H16     1.078   .     S
C45    C46     1.553   .     S
C45    H17     1.078   .     S
C46    C47     1.485   .     S
C46    C52     1.409   .     D
C47    C48     1.572   .     S
C47    C49     1.414   .     D
C48    H18     1.079   .     S
C49    C50     1.565   .     S
C49    H19     1.082   .     S
C50    C51     1.431   .     S
C50    O7      1.262   .     D
C51    C52     1.554   .     S
C51    O8      1.261   .     D
C52    H20     1.082   .     S
C53    C54     1.554   .     S
C53    H21     1.082   .     S
C54    C55     1.431   .     S
C54    O9      1.261   .     D
C55    C56     1.565   .     S
C55    O10     1.262   .     D
C56    H22     1.082   .     S
O7     Cu2     1.864   .     S
O8     Cu2     1.857   .     S
O9     Cu3     1.857   .     S
O10    Cu3     1.864   .     S
C57    C58     1.552   .     S
C57    H23     1.082   .     S
C58    C59     1.449   1_455 S
C58    O11     1.259   .     D
C59    C58     1.449   1_655 S
C59    C60     1.551   .     S
C59    O12     1.259   .     D
C60    H24     1.082   .     S
O11    Fe3     2.001   .     S
O12    Fe3     2.001   1_655 S
Fe3    O12     2.001   1_455 S
Fe3    O25     1.974   1_455 S
Fe3    O26     1.976   .     S
Fe3    O37     1.976   1_455 S
Fe3    O38     1.974   .     S
C61    C62     1.542   1_655 S
C61    C66     1.595   .     S
C61    C71     1.410   .     D
C62    C61     1.542   1_455 S
C62    C63     1.595   .     S
C62    C74     1.410   .     D
C63    C64     1.551   .     S
C63    C70     1.411   .     D
C64    C65     1.616   1_455 S
C64    C67     1.418   .     D
C65    C64     1.616   1_655 S
C65    C66     1.551   .     S
C65    C78     1.418   .     D
C66    C75     1.411   .     D
C67    C68     1.572   .     S
C67    H25     1.079   .     S
C68    C69     1.485   .     S
C68    C86     1.414   .     D
C69    C70     1.553   .     S
C69    C83     1.409   .     D
C70    H26     1.078   .     S
C71    C72     1.553   .     S
C71    H27     1.078   .     S
C72    C73     1.481   1_655 S
C72    C90     1.404   .     D
C73    C72     1.481   1_455 S
C73    C74     1.553   .     S
C73    C87     1.404   .     D
C74    H28     1.078   .     S
C75    C76     1.553   .     S
C75    H29     1.078   .     S
C76    C77     1.485   .     S
C76    C82     1.409   .     D
C77    C78     1.572   .     S
C77    C79     1.414   .     D
C78    H30     1.079   .     S
C79    C80     1.565   .     S
C79    H31     1.082   .     S
C80    C81     1.431   .     S
C80    O13     1.262   .     D
C81    C82     1.554   .     S
C81    O14     1.261   .     D
C82    H32     1.082   .     S
C83    C84     1.554   .     S
C83    H33     1.082   .     S
C84    C85     1.431   .     S
C84    O15     1.261   .     D
C85    C86     1.565   .     S
C85    O16     1.262   .     D
C86    H34     1.082   .     S
O13    Cu1     1.864   .     S
O14    Cu1     1.857   .     S
O15    Cu4     1.857   .     S
O16    Cu4     1.864   .     S
C87    C88     1.551   .     S
C87    H35     1.082   .     S
C88    C89     1.449   1_455 S
C88    O17     1.259   .     D
C89    C88     1.449   1_655 S
C89    C90     1.552   .     S
C89    O18     1.259   .     D
C90    H36     1.082   .     S
O18    Fe1     2.001   1_655 S
Fe4    O29     1.976   .     S
Fe4    O30     1.974   .     S
Fe4    O35     1.976   .     S
Fe4    O36     1.974   .     S
C91    C92     1.542   .     S
C91    C96     1.595   .     S
C91    C101    1.410   .     D
C92    C93     1.595   .     S
C92    C104    1.410   .     D
C93    C94     1.551   .     S
C93    C100    1.411   .     D
C94    C95     1.616   .     S
C94    C97     1.418   .     D
C95    C96     1.551   .     S
C95    C108    1.418   .     D
C96    C105    1.411   .     D
C97    C98     1.572   .     S
C97    H37     1.079   .     S
C98    C99     1.485   .     S
C98    C116    1.414   .     D
C99    C100    1.553   .     S
C99    C113    1.409   .     D
C100   H38     1.078   .     S
C101   C102    1.553   .     S
C101   H39     1.078   .     S
C102   C103    1.481   .     S
C102   C120    1.404   .     D
C103   C104    1.553   .     S
C103   C117    1.404   .     D
C104   H40     1.078   .     S
C105   C106    1.553   .     S
C105   H41     1.078   .     S
C106   C107    1.485   .     S
C106   C112    1.409   .     D
C107   C108    1.572   .     S
C107   C109    1.414   .     D
C108   H42     1.079   .     S
C109   C110    1.565   .     S
C109   H43     1.082   .     S
C110   C111    1.431   .     S
C110   O19     1.262   .     D
C111   C112    1.554   .     S
C111   O20     1.261   .     D
C112   H44     1.082   .     S
C113   C114    1.554   .     S
C113   H45     1.082   .     S
C114   C115    1.431   .     S
C114   O21     1.261   .     D
C115   C116    1.565   .     S
C115   O22     1.262   .     D
C116   H46     1.082   .     S
O19    Cu3     1.864   .     S
O20    Cu3     1.857   .     S
O21    Cu2     1.857   .     S
O22    Cu2     1.864   .     S
C117   C118    1.552   .     S
C117   H47     1.082   .     S
C118   C119    1.449   .     S
C118   O23     1.259   .     D
C119   C120    1.551   .     S
C119   O24     1.259   .     D
C120   H48     1.082   .     S
C121   C122    1.449   1_554 A
C121   C126    1.447   .     A
C121   H49     1.082   .     S
C122   C121    1.449   1_556 A
C122   C123    1.465   1_655 S
C122   O25     1.304   .     A
C123   C122    1.465   1_455 S
C123   C124    1.447   .     A
C123   O26     1.309   .     A
C124   C125    1.449   1_556 A
C124   H50     1.082   .     S
C125   C124    1.449   1_554 A
C125   C126    1.465   1_455 S
C125   O27     1.304   .     A
C126   C125    1.465   1_655 S
C126   O28     1.309   .     A
O25    Fe3     1.974   1_655 S
O28    Fe1     1.976   1_655 S
C127   C128    1.447   .     A
C127   C132    1.449   .     A
C127   H51     1.082   .     S
C128   C129    1.465   .     S
C128   O29     1.309   .     A
C129   C130    1.449   .     A
C129   O30     1.304   .     A
C130   C131    1.447   .     A
C130   H52     1.082   .     S
C131   C132    1.465   .     S
C131   O31     1.309   .     A
C132   O32     1.304   .     A
C133   C134    1.447   1_565 A
C133   C138    1.449   .     A
C133   H53     1.082   .     S
C134   C133    1.447   1_545 A
C134   C135    1.465   .     S
C134   O33     1.309   .     A
C135   C136    1.449   .     A
C135   O34     1.304   .     A
C136   C137    1.447   1_545 A
C136   H54     1.082   .     S
C137   C136    1.447   1_565 A
C137   C138    1.465   .     S
C137   O35     1.309   .     A
C138   O36     1.304   .     A
C139   C140    1.447   1_565 A
C139   C144    1.449   1_556 A
C139   H55     1.082   .     S
C140   C139    1.447   1_545 A
C140   C141    1.465   1_655 S
C140   O37     1.309   .     A
C141   C140    1.465   1_455 S
C141   C142    1.449   1_556 A
C141   O38     1.304   .     A
C142   C141    1.449   1_554 A
C142   C143    1.447   1_545 A
C142   H56     1.082   .     S
C143   C142    1.447   1_565 A
C143   C144    1.465   1_455 S
C143   O39     1.309   .     A
C144   C143    1.465   1_655 S
C144   C139    1.449   1_554 A
C144   O40     1.304   .     A
O37    Fe3     1.976   1_655 S
O40    Fe1     1.974   1_655 S
