data_ths-B_O-Zntet
_audit_creation_date              2021-11-06
_audit_creation_method            'Materials Studio'
_symmetry_space_group_name_H-M    'P1'
_symmetry_Int_Tables_number       1
_symmetry_cell_setting            triclinic
loop_
_symmetry_equiv_pos_as_xyz
  x,y,z
_cell_length_a                    12.8351
_cell_length_b                    12.8351
_cell_length_c                    43.5011
_cell_angle_alpha                 89.9993
_cell_angle_beta                  90.0001
_cell_angle_gamma                 89.9999
loop_
_atom_site_label
_atom_site_type_symbol
_atom_site_fract_x
_atom_site_fract_y
_atom_site_fract_z
_atom_site_U_iso_or_equiv
_atom_site_adp_type
_atom_site_occupancy
C1     C    -0.00001   0.69479   0.07088   0.00000  Uiso   1.00
C2     C     0.00001   0.64155   0.04275   0.00000  Uiso   1.00
C3     C     0.00003   0.69555   0.01539   0.00000  Uiso   1.00
C4     C     0.00003   0.80444   0.01539   0.00000  Uiso   1.00
C5     C     0.00000   0.85844   0.04275   0.00000  Uiso   1.00
C6     C    -0.00002   0.80520   0.07088   0.00000  Uiso   1.00
O1     O    -0.00003   0.64110   0.09876   0.00000  Uiso   1.00
O2     O     0.00000   0.53423   0.04045   0.00000  Uiso   1.00
O3     O     0.00005   0.63620   0.98892   0.00000  Uiso   1.00
O4     O     0.00004   0.86379   0.98892   0.00000  Uiso   1.00
O5     O    -0.00000   0.96576   0.04045   0.00000  Uiso   1.00
O6     O    -0.00004   0.85889   0.09876   0.00000  Uiso   1.00
C7     C     0.44552   0.74999   0.26539   0.00000  Uiso   1.00
C8     C     0.55440   0.74998   0.26539   0.00000  Uiso   1.00
C9     C     0.60841   0.74998   0.29275   0.00000  Uiso   1.00
C10    C     0.55517   0.74999   0.32088   0.00000  Uiso   1.00
C11    C     0.44475   0.75000   0.32088   0.00000  Uiso   1.00
C12    C     0.39151   0.75000   0.29275   0.00000  Uiso   1.00
O7     O     0.38616   0.74999   0.23892   0.00000  Uiso   1.00
O8     O     0.61376   0.74996   0.23892   0.00000  Uiso   1.00
O9     O     0.71573   0.74996   0.29045   0.00000  Uiso   1.00
O10    O     0.60885   0.74999   0.34876   0.00000  Uiso   1.00
O11    O     0.39107   0.75002   0.34876   0.00000  Uiso   1.00
O12    O     0.28420   0.75000   0.29045   0.00000  Uiso   1.00
C13    C     0.50012   0.19480   0.57088   0.00000  Uiso   1.00
C14    C     0.50010   0.14157   0.54275   0.00000  Uiso   1.00
C15    C     0.50007   0.19558   0.51539   0.00000  Uiso   1.00
C16    C     0.50007   0.30446   0.51539   0.00000  Uiso   1.00
C17    C     0.50010   0.35846   0.54275   0.00000  Uiso   1.00
C18    C     0.50013   0.30522   0.57088   0.00000  Uiso   1.00
O13    O     0.50014   0.14112   0.59876   0.00000  Uiso   1.00
O14    O     0.50008   0.03425   0.54045   0.00000  Uiso   1.00
O15    O     0.50004   0.13622   0.48892   0.00000  Uiso   1.00
O16    O     0.50004   0.36382   0.48892   0.00000  Uiso   1.00
O17    O     0.50008   0.46578   0.54045   0.00000  Uiso   1.00
O18    O     0.50015   0.35890   0.59876   0.00000  Uiso   1.00
C19    C     0.94572   0.24999   0.76539   0.00000  Uiso   1.00
C20    C     0.05460   0.24999   0.76539   0.00000  Uiso   1.00
C21    C     0.10860   0.25000   0.79275   0.00000  Uiso   1.00
C22    C     0.05536   0.25001   0.82088   0.00000  Uiso   1.00
C23    C     0.94495   0.25001   0.82088   0.00000  Uiso   1.00
C24    C     0.89171   0.25000   0.79275   0.00000  Uiso   1.00
O19    O     0.88636   0.24998   0.73892   0.00000  Uiso   1.00
O20    O     0.11396   0.24998   0.73892   0.00000  Uiso   1.00
O21    O     0.21592   0.24998   0.79045   0.00000  Uiso   1.00
O22    O     0.10905   0.25001   0.84876   0.00000  Uiso   1.00
O23    O     0.89126   0.25001   0.84876   0.00000  Uiso   1.00
O24    O     0.78439   0.24999   0.79045   0.00000  Uiso   1.00
C25    C     0.00013   0.30521   0.92912   0.00000  Uiso   1.00
C26    C     0.00010   0.35845   0.95725   0.00000  Uiso   1.00
C27    C     0.00007   0.30444   0.98460   0.00000  Uiso   1.00
C28    C     0.00007   0.19556   0.98460   0.00000  Uiso   1.00
C29    C     0.00009   0.14155   0.95725   0.00000  Uiso   1.00
C30    C     0.00013   0.19479   0.92912   0.00000  Uiso   1.00
O25    O     0.00015   0.35889   0.90124   0.00000  Uiso   1.00
O26    O     0.00009   0.46576   0.95955   0.00000  Uiso   1.00
O27    O     0.00005   0.36379   0.01107   0.00000  Uiso   1.00
O28    O     0.00004   0.13620   0.01107   0.00000  Uiso   1.00
O29    O     0.00007   0.03423   0.95955   0.00000  Uiso   1.00
O30    O     0.00015   0.14111   0.90124   0.00000  Uiso   1.00
C31    C     0.94552   0.74999   0.23460   0.00000  Uiso   1.00
C32    C     0.05440   0.75000   0.23460   0.00000  Uiso   1.00
C33    C     0.10841   0.75001   0.20725   0.00000  Uiso   1.00
C34    C     0.05517   0.75001   0.17912   0.00000  Uiso   1.00
C35    C     0.94475   0.75000   0.17912   0.00000  Uiso   1.00
C36    C     0.89151   0.74999   0.20725   0.00000  Uiso   1.00
O31    O     0.88616   0.74997   0.26107   0.00000  Uiso   1.00
O32    O     0.11376   0.74999   0.26107   0.00000  Uiso   1.00
O33    O     0.21573   0.75001   0.20955   0.00000  Uiso   1.00
O34    O     0.10885   0.75001   0.15124   0.00000  Uiso   1.00
O35    O     0.89107   0.74999   0.15124   0.00000  Uiso   1.00
O36    O     0.78420   0.74997   0.20955   0.00000  Uiso   1.00
C37    C     0.49999   0.80522   0.42912   0.00000  Uiso   1.00
C38    C     0.50001   0.85846   0.45725   0.00000  Uiso   1.00
C39    C     0.50003   0.80446   0.48460   0.00000  Uiso   1.00
C40    C     0.50002   0.69558   0.48461   0.00000  Uiso   1.00
C41    C     0.50000   0.64157   0.45725   0.00000  Uiso   1.00
C42    C     0.49998   0.69481   0.42912   0.00000  Uiso   1.00
O37    O     0.49998   0.85890   0.40124   0.00000  Uiso   1.00
O38    O     0.50000   0.96578   0.45955   0.00000  Uiso   1.00
O39    O     0.50004   0.86382   0.51107   0.00000  Uiso   1.00
O40    O     0.50004   0.63622   0.51108   0.00000  Uiso   1.00
O41    O     0.50000   0.53425   0.45955   0.00000  Uiso   1.00
O42    O     0.49996   0.64112   0.40124   0.00000  Uiso   1.00
C43    C     0.44572   0.25001   0.73460   0.00000  Uiso   1.00
C44    C     0.55460   0.25000   0.73460   0.00000  Uiso   1.00
C45    C     0.60860   0.25000   0.70725   0.00000  Uiso   1.00
C46    C     0.55536   0.25000   0.67912   0.00000  Uiso   1.00
C47    C     0.44495   0.25001   0.67912   0.00000  Uiso   1.00
C48    C     0.39171   0.25001   0.70725   0.00000  Uiso   1.00
O43    O     0.38636   0.25000   0.76107   0.00000  Uiso   1.00
O44    O     0.61396   0.25000   0.76107   0.00000  Uiso   1.00
O45    O     0.71592   0.24999   0.70955   0.00000  Uiso   1.00
O46    O     0.60904   0.25000   0.65124   0.00000  Uiso   1.00
O47    O     0.39126   0.25001   0.65124   0.00000  Uiso   1.00
O48    O     0.28439   0.25000   0.70955   0.00000  Uiso   1.00
Cu1    Cu    0.00003   0.50000   1.00000   0.00000  Uiso   1.00
Cu2    Cu    0.74996   0.74995   0.25000   0.00000  Uiso   1.00
Cu3    Cu    0.50002   0.50002   0.50000   0.00000  Uiso   1.00
Cu4    Cu    0.75016   0.24997   0.75000   0.00000  Uiso   1.00
Cu5    Cu    0.25016   0.24997   0.75000   0.00000  Uiso   1.00
Cu6    Cu    0.24996   0.74998   0.25000   0.00000  Uiso   1.00
Cu7    Cu    0.50002   1.00002   0.50000   0.00000  Uiso   1.00
Cu8    Cu    0.00003  -0.00000   1.00000   0.00000  Uiso   1.00
Zn1    Zn   -0.00004   0.75000   0.12500   0.00000  Uiso   1.00
Zn2    Zn    0.49996   0.75001   0.37500   0.00000  Uiso   1.00
Zn3    Zn    0.50015   0.25001   0.62500   0.00000  Uiso   1.00
Zn4    Zn    0.00015   0.25001   0.87500   0.00000  Uiso   1.00
loop_
_geom_bond_atom_site_label_1
_geom_bond_atom_site_label_2
_geom_bond_distance
_geom_bond_site_symmetry_2
_ccdc_geom_bond_type
C1     C2      1.402   .     A
C1     C6      1.417   .     A
C1     O1      1.395   .     S
C2     C3      1.377   .     A
C2     O2      1.381   .     S
C3     C4      1.398   .     A
C3     O3      1.381   1_554 S
C4     C5      1.377   .     A
C4     O4      1.381   1_554 S
C5     C6      1.402   .     A
C5     O5      1.381   .     S
C6     O6      1.395   .     S
O1     Zn1     1.805   .     S
O2     Cu1     1.814   1_554 S
O3     C3      1.381   1_556 S
O3     Cu1     1.813   .     S
O4     C4      1.381   1_556 S
O4     Cu8     1.813   1_565 S
O5     Cu8     1.814   1_564 S
O6     Zn1     1.805   .     S
C7     C8      1.398   .     A
C7     C12     1.377   .     A
C7     O7      1.381   .     S
C8     C9      1.377   .     A
C8     O8      1.381   .     S
C9     C10     1.402   .     A
C9     O9      1.381   .     S
C10    C11     1.417   .     A
C10    O10     1.395   .     S
C11    C12     1.402   .     A
C11    O11     1.395   .     S
C12    O12     1.381   .     S
O7     Cu6     1.813   .     S
O8     Cu2     1.813   .     S
O9     Cu2     1.814   .     S
O10    Zn2     1.805   .     S
O11    Zn2     1.805   .     S
O12    Cu6     1.814   .     S
C13    C14     1.402   .     A
C13    C18     1.417   .     A
C13    O13     1.395   .     S
C14    C15     1.377   .     A
C14    O14     1.381   .     S
C15    C16     1.398   .     A
C15    O15     1.381   .     S
C16    C17     1.377   .     A
C16    O16     1.381   .     S
C17    C18     1.402   .     A
C17    O17     1.381   .     S
C18    O18     1.395   .     S
O13    Zn3     1.805   .     S
O14    Cu7     1.814   1_545 S
O15    Cu7     1.813   1_545 S
O16    Cu3     1.813   .     S
O17    Cu3     1.814   .     S
O18    Zn3     1.805   .     S
C19    C20     1.398   1_655 A
C19    C24     1.377   .     A
C19    O19     1.381   .     S
C20    C19     1.398   1_455 A
C20    C21     1.377   .     A
C20    O20     1.381   .     S
C21    C22     1.402   .     A
C21    O21     1.381   .     S
C22    C23     1.417   1_455 A
C22    O22     1.395   .     S
C23    C22     1.417   1_655 A
C23    C24     1.402   .     A
C23    O23     1.395   .     S
C24    O24     1.381   .     S
O19    Cu4     1.813   .     S
O20    Cu5     1.813   .     S
O21    Cu5     1.814   .     S
O22    Zn4     1.805   .     S
O23    Zn4     1.805   1_655 S
O24    Cu4     1.814   .     S
C25    C26     1.402   .     A
C25    C30     1.417   .     A
C25    O25     1.395   .     S
C26    C27     1.377   .     A
C26    O26     1.381   .     S
C27    C28     1.398   .     A
C27    O27     1.381   1_556 S
C28    C29     1.377   .     A
C28    O28     1.381   1_556 S
C29    C30     1.402   .     A
C29    O29     1.381   .     S
C30    O30     1.395   .     S
O25    Zn4     1.805   .     S
O26    Cu1     1.814   .     S
O27    C27     1.381   1_554 S
O27    Cu1     1.813   1_554 S
O28    C28     1.381   1_554 S
O28    Cu8     1.813   1_554 S
O29    Cu8     1.814   .     S
O30    Zn4     1.805   .     S
C31    C32     1.398   1_655 A
C31    C36     1.377   .     A
C31    O31     1.381   .     S
C32    C31     1.398   1_455 A
C32    C33     1.377   .     A
C32    O32     1.381   .     S
C33    C34     1.402   .     A
C33    O33     1.381   .     S
C34    C35     1.417   1_455 A
C34    O34     1.395   .     S
C35    C34     1.417   1_655 A
C35    C36     1.402   .     A
C35    O35     1.395   .     S
C36    O36     1.381   .     S
O31    Cu2     1.813   .     S
O32    Cu6     1.813   .     S
O33    Cu6     1.814   .     S
O34    Zn1     1.805   .     S
O35    Zn1     1.805   1_655 S
O36    Cu2     1.814   .     S
C37    C38     1.402   .     A
C37    C42     1.417   .     A
C37    O37     1.395   .     S
C38    C39     1.377   .     A
C38    O38     1.381   .     S
C39    C40     1.398   .     A
C39    O39     1.381   .     S
C40    C41     1.377   .     A
C40    O40     1.381   .     S
C41    C42     1.402   .     A
C41    O41     1.381   .     S
C42    O42     1.395   .     S
O37    Zn2     1.805   .     S
O38    Cu7     1.814   .     S
O39    Cu7     1.813   .     S
O40    Cu3     1.813   .     S
O41    Cu3     1.814   .     S
O42    Zn2     1.805   .     S
C43    C44     1.398   .     A
C43    C48     1.377   .     A
C43    O43     1.381   .     S
C44    C45     1.377   .     A
C44    O44     1.381   .     S
C45    C46     1.402   .     A
C45    O45     1.381   .     S
C46    C47     1.417   .     A
C46    O46     1.395   .     S
C47    C48     1.402   .     A
C47    O47     1.395   .     S
C48    O48     1.381   .     S
O43    Cu5     1.813   .     S
O44    Cu4     1.813   .     S
O45    Cu4     1.814   .     S
O46    Zn3     1.805   .     S
O47    Zn3     1.805   .     S
O48    Cu5     1.814   .     S
Cu1    O2      1.814   1_556 S
Cu1    O27     1.813   1_556 S
Cu7    O15     1.813   1_565 S
Cu7    O14     1.814   1_565 S
Cu8    O4      1.813   1_545 S
Cu8    O28     1.813   1_556 S
Cu8    O5      1.814   1_546 S
Zn1    O35     1.805   1_455 S
Zn4    O23     1.805   1_455 S
