data_ttg_Feoct_DHBQ
_audit_creation_date              2023-08-06
_audit_creation_method            'Materials Studio'
_symmetry_space_group_name_H-M    'P1'
_symmetry_Int_Tables_number       1
_symmetry_cell_setting            triclinic
loop_
_symmetry_equiv_pos_as_xyz
  x,y,z
_cell_length_a                    17.3383
_cell_length_b                    17.3383
_cell_length_c                    28.3759
_cell_angle_alpha                 89.9992
_cell_angle_beta                  89.9995
_cell_angle_gamma                 90.0000
loop_
_atom_site_label
_atom_site_type_symbol
_atom_site_fract_x
_atom_site_fract_y
_atom_site_fract_z
_atom_site_U_iso_or_equiv
_atom_site_adp_type
_atom_site_occupancy
Fe1    Fe    0.00005   0.00008   0.13039   0.00000  Uiso   1.00
Fe2    Fe    0.00005   0.00008   0.86867   0.00000  Uiso   1.00
Fe3    Fe    0.50005   0.50008   0.63133   0.00000  Uiso   1.00
Fe4    Fe    0.50005   0.50008   0.36961   0.00000  Uiso   1.00
Fe5    Fe    0.15117   0.34896   0.25000   0.00000  Uiso   1.00
Fe6    Fe    0.34952   0.84955   0.75000   0.00000  Uiso   1.00
Fe7    Fe    0.84893   0.65120   0.25000   0.00000  Uiso   1.00
Fe8    Fe    0.65058   0.15061   0.75000   0.00000  Uiso   1.00
C1     C     0.94092   0.44095   0.25000   0.00000  Uiso   1.00
C2     C     0.01913   0.42190   0.25408   0.00000  Uiso   1.00
C3     C     0.07822   0.48099   0.24592   0.00000  Uiso   1.00
C4     C     0.05917   0.55920   0.25000   0.00000  Uiso   1.00
C5     C     0.98097   0.57825   0.25408   0.00000  Uiso   1.00
C6     C     0.92188   0.51916   0.24592   0.00000  Uiso   1.00
H1     H     0.89677   0.39680   0.25000   0.00000  Uiso   1.00
O1     O     0.04377   0.35435   0.26269   0.00000  Uiso   1.00
O2     O     0.14578   0.45636   0.23731   0.00000  Uiso   1.00
H2     H     0.10333   0.60336   0.25000   0.00000  Uiso   1.00
O3     O     0.95633   0.64581   0.26269   0.00000  Uiso   1.00
O4     O     0.85432   0.54380   0.23731   0.00000  Uiso   1.00
C7     C     0.50005   0.00008   0.69881   0.00000  Uiso   1.00
C8     C     0.45429   0.94858   0.72417   0.00000  Uiso   1.00
C9     C     0.44855   0.95431   0.77583   0.00000  Uiso   1.00
C10    C     0.50005   1.00007   0.80119   0.00000  Uiso   1.00
C11    C     0.55155   0.04584   0.77583   0.00000  Uiso   1.00
C12    C     0.54582   0.05157   0.72417   0.00000  Uiso   1.00
H3     H     0.50005   0.00008   0.66065   0.00000  Uiso   1.00
O5     O     0.41418   0.89635   0.70476   0.00000  Uiso   1.00
O6     O     0.39633   0.91420   0.79524   0.00000  Uiso   1.00
H4     H     0.50005   1.00007   0.83935   0.00000  Uiso   1.00
O7     O     0.60377   0.08595   0.79523   0.00000  Uiso   1.00
O8     O     0.58592   0.10380   0.70476   0.00000  Uiso   1.00
C13    C     0.05336   0.21973   0.15295   0.00000  Uiso   1.00
C14    C     0.10221   0.25099   0.18716   0.00000  Uiso   1.00
C15    C     0.12789   0.20355   0.22709   0.00000  Uiso   1.00
C16    C     0.12283   0.12250   0.22443   0.00000  Uiso   1.00
C17    C     0.08073   0.09011   0.18683   0.00000  Uiso   1.00
C18    C     0.03694   0.14080   0.15516   0.00000  Uiso   1.00
H5     H     0.02689   0.25609   0.12647   0.00000  Uiso   1.00
O9     O     0.12195   0.32163   0.18800   0.00000  Uiso   1.00
O10    O     0.15391   0.24072   0.26251   0.00000  Uiso   1.00
H6     H     0.14832   0.08627   0.25131   0.00000  Uiso   1.00
O11    O     0.07460   0.01780   0.17883   0.00000  Uiso   1.00
O12    O    -0.01363   0.10831   0.12964   0.00000  Uiso   1.00
C19    C     0.16316   0.84629   0.83363   0.00000  Uiso   1.00
C20    C     0.22293   0.85603   0.80069   0.00000  Uiso   1.00
C21    C     0.22235   0.92338   0.76906   0.00000  Uiso   1.00
C22    C     0.16915   0.98294   0.77461   0.00000  Uiso   1.00
C23    C     0.11508   0.97708   0.81065   0.00000  Uiso   1.00
C24    C     0.10854   0.90585   0.83863   0.00000  Uiso   1.00
H7     H     0.16088   0.79561   0.85587   0.00000  Uiso   1.00
O13    O     0.28011   0.80987   0.79615   0.00000  Uiso   1.00
O14    O     0.27471   0.92561   0.73815   0.00000  Uiso   1.00
H8     H     0.17193   0.03402   0.75270   0.00000  Uiso   1.00
O15    O     0.06921   0.03157   0.82110   0.00000  Uiso   1.00
O16    O     0.05270   0.90372   0.86775   0.00000  Uiso   1.00
C25    C     0.94675   0.78043   0.15295   0.00000  Uiso   1.00
C26    C     0.89789   0.74917   0.18716   0.00000  Uiso   1.00
C27    C     0.87221   0.79660   0.22709   0.00000  Uiso   1.00
C28    C     0.87727   0.87766   0.22443   0.00000  Uiso   1.00
C29    C     0.91937   0.91005   0.18683   0.00000  Uiso   1.00
C30    C     0.96316   0.85936   0.15516   0.00000  Uiso   1.00
H9     H     0.97321   0.74407   0.12647   0.00000  Uiso   1.00
O17    O     0.87815   0.67853   0.18800   0.00000  Uiso   1.00
O18    O     0.84619   0.75943   0.26251   0.00000  Uiso   1.00
H10    H     0.85178   0.91389   0.25131   0.00000  Uiso   1.00
O19    O     0.92550   0.98236   0.17883   0.00000  Uiso   1.00
O20    O     0.01373   0.89185   0.12964   0.00000  Uiso   1.00
C31    C     0.83095   0.01721   0.77461   0.00000  Uiso   1.00
C32    C     0.77776   0.07678   0.76906   0.00000  Uiso   1.00
C33    C     0.77717   0.14412   0.80069   0.00000  Uiso   1.00
C34    C     0.83694   0.15386   0.83363   0.00000  Uiso   1.00
C35    C     0.89156   0.09430   0.83863   0.00000  Uiso   1.00
C36    C     0.88502   0.02308   0.81065   0.00000  Uiso   1.00
H11    H     0.82817   0.96613   0.75270   0.00000  Uiso   1.00
O21    O     0.72539   0.07455   0.73815   0.00000  Uiso   1.00
O22    O     0.71999   0.19029   0.79615   0.00000  Uiso   1.00
H12    H     0.83922   0.20455   0.85587   0.00000  Uiso   1.00
O23    O     0.94740   0.09643   0.86775   0.00000  Uiso   1.00
O24    O     0.93089   0.96858   0.82110   0.00000  Uiso   1.00
C37    C     0.48291   0.66918   0.72539   0.00000  Uiso   1.00
C38    C     0.42335   0.72237   0.73094   0.00000  Uiso   1.00
C39    C     0.35600   0.72296   0.69931   0.00000  Uiso   1.00
C40    C     0.34626   0.66319   0.66637   0.00000  Uiso   1.00
C41    C     0.40582   0.60857   0.66137   0.00000  Uiso   1.00
C42    C     0.47705   0.61511   0.68935   0.00000  Uiso   1.00
H13    H     0.53400   0.67195   0.74730   0.00000  Uiso   1.00
O25    O     0.42558   0.77473   0.76185   0.00000  Uiso   1.00
O26    O     0.30984   0.78014   0.70385   0.00000  Uiso   1.00
H14    H     0.29558   0.66091   0.64413   0.00000  Uiso   1.00
O27    O     0.40369   0.55273   0.63225   0.00000  Uiso   1.00
O28    O     0.53155   0.56924   0.67889   0.00000  Uiso   1.00
C43    C     0.62247   0.62286   0.27557   0.00000  Uiso   1.00
C44    C     0.70352   0.62791   0.27291   0.00000  Uiso   1.00
C45    C     0.75096   0.60224   0.31284   0.00000  Uiso   1.00
C46    C     0.71969   0.55338   0.34705   0.00000  Uiso   1.00
C47    C     0.64077   0.53697   0.34484   0.00000  Uiso   1.00
C48    C     0.59008   0.58076   0.31317   0.00000  Uiso   1.00
H15    H     0.58624   0.64835   0.24869   0.00000  Uiso   1.00
O29    O     0.74069   0.65394   0.23749   0.00000  Uiso   1.00
O30    O     0.82160   0.62197   0.31200   0.00000  Uiso   1.00
H16    H     0.75605   0.52691   0.37353   0.00000  Uiso   1.00
O31    O     0.60828   0.48639   0.37036   0.00000  Uiso   1.00
O32    O     0.51777   0.57462   0.32117   0.00000  Uiso   1.00
C49    C     0.65384   0.33696   0.66637   0.00000  Uiso   1.00
C50    C     0.64410   0.27719   0.69931   0.00000  Uiso   1.00
C51    C     0.57675   0.27778   0.73094   0.00000  Uiso   1.00
C52    C     0.51719   0.33097   0.72539   0.00000  Uiso   1.00
C53    C     0.52305   0.38505   0.68935   0.00000  Uiso   1.00
C54    C     0.59427   0.39159   0.66137   0.00000  Uiso   1.00
H17    H     0.70452   0.33925   0.64413   0.00000  Uiso   1.00
O33    O     0.69026   0.22002   0.70385   0.00000  Uiso   1.00
O34    O     0.57452   0.22542   0.76185   0.00000  Uiso   1.00
H18    H     0.46610   0.32820   0.74730   0.00000  Uiso   1.00
O35    O     0.46855   0.43092   0.67890   0.00000  Uiso   1.00
O36    O     0.59641   0.44743   0.63225   0.00000  Uiso   1.00
C55    C     0.37763   0.37729   0.27557   0.00000  Uiso   1.00
C56    C     0.29658   0.37224   0.27291   0.00000  Uiso   1.00
C57    C     0.24913   0.39792   0.31284   0.00000  Uiso   1.00
C58    C     0.28040   0.44677   0.34705   0.00000  Uiso   1.00
C59    C     0.35932   0.46319   0.34484   0.00000  Uiso   1.00
C60    C     0.41002   0.41940   0.31317   0.00000  Uiso   1.00
H19    H     0.41386   0.35181   0.24869   0.00000  Uiso   1.00
O37    O     0.25941   0.34622   0.23749   0.00000  Uiso   1.00
O38    O     0.17850   0.37818   0.31200   0.00000  Uiso   1.00
H20    H     0.24404   0.47324   0.37353   0.00000  Uiso   1.00
O39    O     0.39182   0.51376   0.37036   0.00000  Uiso   1.00
O40    O     0.48233   0.42553   0.32117   0.00000  Uiso   1.00
C61    C     0.07958   0.02626  -0.00051   0.00000  Uiso   1.00
C62    C     0.03930   0.01628   0.95724   0.00000  Uiso   1.00
C63    C     0.96080   0.98388   0.95724   0.00000  Uiso   1.00
C64    C     0.92052   0.97390   0.99949   0.00000  Uiso   1.00
C65    C     0.95886   0.98981   0.04174   0.00000  Uiso   1.00
C66    C     0.04124   0.01035   0.04174   0.00000  Uiso   1.00
H21    H     0.13891   0.04579  -0.00051   0.00000  Uiso   1.00
O41    O     0.06763   0.03253   0.91716   0.00000  Uiso   1.00
O42    O     0.93248   0.96763   0.91716   0.00000  Uiso   1.00
H22    H     0.86119   0.95437   0.99950   0.00000  Uiso   1.00
O43    O     0.92643   0.98605   0.08183   0.00000  Uiso   1.00
O44    O     0.07367   0.01412   0.08183   0.00000  Uiso   1.00
C67    C     0.47387   0.42055   0.50051   0.00000  Uiso   1.00
C68    C     0.48385   0.46083   0.54276   0.00000  Uiso   1.00
C69    C     0.51625   0.53932   0.54276   0.00000  Uiso   1.00
C70    C     0.52622   0.57961   0.50051   0.00000  Uiso   1.00
C71    C     0.51032   0.54127   0.45826   0.00000  Uiso   1.00
C72    C     0.48977   0.45889   0.45826   0.00000  Uiso   1.00
H23    H     0.45433   0.36122   0.50051   0.00000  Uiso   1.00
O45    O     0.46759   0.43250   0.58284   0.00000  Uiso   1.00
O46    O     0.53250   0.56765   0.58284   0.00000  Uiso   1.00
H24    H     0.54576   0.63893   0.50050   0.00000  Uiso   1.00
O47    O     0.51408   0.57369   0.41817   0.00000  Uiso   1.00
O48    O     0.48601   0.42646   0.41817   0.00000  Uiso   1.00
loop_
_geom_bond_atom_site_label_1
_geom_bond_atom_site_label_2
_geom_bond_distance
_geom_bond_site_symmetry_2
_ccdc_geom_bond_type
Fe1    O11     1.911   .     S
Fe1    O12     1.892   .     S
Fe1    O19     1.911   1_445 S
Fe1    O20     1.892   1_545 S
Fe1    O43     1.894   1_445 S
Fe1    O44     1.894   .     S
Fe2    O15     1.886   .     S
Fe2    O16     1.904   1_545 S
Fe2    O23     1.904   1_455 S
Fe2    O24     1.886   1_445 S
Fe2    O41     1.893   .     S
Fe2    O42     1.893   1_445 S
Fe3    O27     1.904   .     S
Fe3    O28     1.886   .     S
Fe3    O35     1.886   .     S
Fe3    O36     1.904   .     S
Fe3    O45     1.893   .     S
Fe3    O46     1.893   .     S
Fe4    O31     1.892   .     S
Fe4    O32     1.911   .     S
Fe4    O39     1.892   .     S
Fe4    O40     1.911   .     S
Fe4    O47     1.894   .     S
Fe4    O48     1.894   .     S
Fe5    O1      1.899   .     S
Fe5    O2      1.899   .     S
Fe5    O9      1.891   .     S
Fe5    O10     1.910   .     S
Fe5    O37     1.910   .     S
Fe5    O38     1.891   .     S
Fe6    O5      1.888   .     S
Fe6    O6      1.888   .     S
Fe6    O13     1.907   .     S
Fe6    O14     1.880   .     S
Fe6    O25     1.880   .     S
Fe6    O26     1.907   .     S
Fe7    O3      1.899   .     S
Fe7    O4      1.899   .     S
Fe7    O17     1.891   .     S
Fe7    O18     1.910   .     S
Fe7    O29     1.910   .     S
Fe7    O30     1.891   .     S
Fe8    O7      1.888   .     S
Fe8    O8      1.888   .     S
Fe8    O21     1.880   .     S
Fe8    O22     1.907   .     S
Fe8    O33     1.907   .     S
Fe8    O34     1.880   .     S
C1     C2      1.400   1_655 A
C1     C6      1.400   .     A
C1     H1      1.083   .     S
C2     C1      1.400   1_455 A
C2     C3      1.467   .     S
C2     O1      1.271   .     A
C3     C4      1.400   .     A
C3     O2      1.271   .     A
C4     C5      1.400   1_455 A
C4     H2      1.083   .     S
C5     C4      1.400   1_655 A
C5     C6      1.467   .     S
C5     O3      1.271   .     A
C6     O4      1.271   .     A
C7     C8      1.395   1_545 A
C7     C12     1.395   .     A
C7     H3      1.083   .     S
C8     C7      1.395   1_565 A
C8     C9      1.472   .     S
C8     O5      1.268   .     A
C9     C10     1.395   .     A
C9     O6      1.268   .     A
C10    C11     1.395   1_565 A
C10    H4      1.083   .     S
C11    C10     1.395   1_545 A
C11    C12     1.472   .     S
C11    O7      1.268   .     A
C12    O8      1.268   .     A
C13    C14     1.398   .     A
C13    C18     1.399   .     A
C13    H5      1.083   .     S
C14    C15     1.469   .     S
C14    O9      1.272   .     A
C15    C16     1.410   .     A
C15    O10     1.276   .     A
C16    C17     1.409   .     A
C16    H6      1.083   .     S
C17    C18     1.469   .     S
C17    O11     1.279   .     A
C18    O12     1.269   .     A
C19    C20     1.406   .     A
C19    C24     1.408   .     A
C19    H7      1.083   .     S
C20    C21     1.473   .     S
C20    O13     1.281   .     A
C21    C22     1.394   .     A
C21    O14     1.263   .     A
C22    C23     1.391   .     A
C22    H8      1.083   1_565 S
C23    C24     1.472   .     S
C23    O15     1.270   1_565 A
C24    O16     1.273   .     A
H8     C22     1.083   1_545 S
O15    C23     1.270   1_545 A
O16    Fe2     1.904   1_565 S
C25    C26     1.398   .     A
C25    C30     1.399   .     A
C25    H9      1.083   .     S
C26    C27     1.469   .     S
C26    O17     1.272   .     A
C27    C28     1.410   .     A
C27    O18     1.276   .     A
C28    C29     1.409   .     A
C28    H10     1.083   .     S
C29    C30     1.469   .     S
C29    O19     1.279   .     A
C30    O20     1.269   1_655 A
O19    Fe1     1.911   1_665 S
O20    Fe1     1.892   1_565 S
O20    C30     1.269   1_455 A
C31    C32     1.394   .     A
C31    C36     1.391   .     A
C31    H11     1.083   1_545 S
C32    C33     1.473   .     S
C32    O21     1.263   .     A
C33    C34     1.406   .     A
C33    O22     1.281   .     A
C34    C35     1.408   .     A
C34    H12     1.083   .     S
C35    C36     1.472   .     S
C35    O23     1.273   .     A
C36    O24     1.270   1_545 A
H11    C31     1.083   1_565 S
O23    Fe2     1.904   1_655 S
O24    C36     1.270   1_565 A
O24    Fe2     1.886   1_665 S
C37    C38     1.394   .     A
C37    C42     1.391   .     A
C37    H13     1.083   .     S
C38    C39     1.473   .     S
C38    O25     1.263   .     A
C39    C40     1.406   .     A
C39    O26     1.281   .     A
C40    C41     1.408   .     A
C40    H14     1.083   .     S
C41    C42     1.472   .     S
C41    O27     1.273   .     A
C42    O28     1.270   .     A
C43    C44     1.410   .     A
C43    C48     1.409   .     A
C43    H15     1.083   .     S
C44    C45     1.469   .     S
C44    O29     1.276   .     A
C45    C46     1.398   .     A
C45    O30     1.272   .     A
C46    C47     1.399   .     A
C46    H16     1.083   .     S
C47    C48     1.469   .     S
C47    O31     1.269   .     A
C48    O32     1.279   .     A
C49    C50     1.406   .     A
C49    C54     1.408   .     A
C49    H17     1.083   .     S
C50    C51     1.473   .     S
C50    O33     1.281   .     A
C51    C52     1.394   .     A
C51    O34     1.263   .     A
C52    C53     1.391   .     A
C52    H18     1.083   .     S
C53    C54     1.472   .     S
C53    O35     1.270   .     A
C54    O36     1.273   .     A
C55    C56     1.410   .     A
C55    C60     1.409   .     A
C55    H19     1.083   .     S
C56    C57     1.469   .     S
C56    O37     1.276   .     A
C57    C58     1.398   .     A
C57    O38     1.272   .     A
C58    C59     1.399   .     A
C58    H20     1.083   .     S
C59    C60     1.469   .     S
C59    O39     1.269   .     A
C60    O40     1.279   .     A
C61    C62     1.398   1_554 A
C61    C66     1.398   .     A
C61    H21     1.083   .     S
C62    C61     1.398   1_556 A
C62    C63     1.472   1_445 S
C62    O41     1.271   .     A
C63    C62     1.472   1_665 S
C63    C64     1.398   .     A
C63    O42     1.271   .     A
C64    C65     1.398   1_556 A
C64    H22     1.083   .     S
C65    C64     1.398   1_554 A
C65    C66     1.472   1_665 S
C65    O43     1.271   .     A
C66    C65     1.472   1_445 S
C66    O44     1.271   .     A
O42    Fe2     1.893   1_665 S
O43    Fe1     1.894   1_665 S
C67    C68     1.398   .     A
C67    C72     1.398   .     A
C67    H23     1.083   .     S
C68    C69     1.472   .     S
C68    O45     1.271   .     A
C69    C70     1.398   .     A
C69    O46     1.271   .     A
C70    C71     1.398   .     A
C70    H24     1.083   .     S
C71    C72     1.472   .     S
C71    O47     1.271   .     A
C72    O48     1.271   .     A
