data_uni-d_Feoct_DHBQ
_audit_creation_date              2023-08-06
_audit_creation_method            'Materials Studio'
_symmetry_space_group_name_H-M    'P1'
_symmetry_Int_Tables_number       1
_symmetry_cell_setting            triclinic
loop_
_symmetry_equiv_pos_as_xyz
  x,y,z
_cell_length_a                    29.0635
_cell_length_b                    29.0635
_cell_length_c                    18.1983
_cell_angle_alpha                 90.0000
_cell_angle_beta                  90.0000
_cell_angle_gamma                 119.9970
loop_
_atom_site_label
_atom_site_type_symbol
_atom_site_fract_x
_atom_site_fract_y
_atom_site_fract_z
_atom_site_U_iso_or_equiv
_atom_site_adp_type
_atom_site_occupancy
Fe1    Fe    0.26898   0.13448   0.08333   0.00000  Uiso   1.00
Fe2    Fe    0.13449   0.26897   0.25001   0.00000  Uiso   1.00
Fe3    Fe    0.86552   0.13449   0.41666   0.00000  Uiso   1.00
Fe4    Fe    0.73102   0.86552   0.58333   0.00000  Uiso   1.00
Fe5    Fe    0.86551   0.73103   0.75001   0.00000  Uiso   1.00
Fe6    Fe    0.13448   0.86551   0.91666   0.00000  Uiso   1.00
Fe7    Fe    0.56597   0.28299   0.08332   0.00000  Uiso   1.00
Fe8    Fe    0.28298   0.56596   0.25000   0.00000  Uiso   1.00
Fe9    Fe    0.71702   0.28299   0.41666   0.00000  Uiso   1.00
Fe10   Fe    0.43403   0.71701   0.58332   0.00000  Uiso   1.00
Fe11   Fe    0.71701   0.43404   0.75000   0.00000  Uiso   1.00
Fe12   Fe    0.28298   0.71701   0.91666   0.00000  Uiso   1.00
C1     C     0.41745   0.25613   0.05835   0.00000  Uiso   1.00
C2     C     0.46536   0.25707   0.07245   0.00000  Uiso   1.00
C3     C     0.46537   0.20829   0.09419   0.00000  Uiso   1.00
C4     C     0.41746   0.16132   0.10829   0.00000  Uiso   1.00
C5     C     0.36953   0.16111   0.09777   0.00000  Uiso   1.00
C6     C     0.36953   0.20842   0.06888   0.00000  Uiso   1.00
H1     H     0.41744   0.29151   0.03970   0.00000  Uiso   1.00
O1     O     0.51079   0.29878   0.06661   0.00000  Uiso   1.00
O2     O     0.51080   0.21201   0.10004   0.00000  Uiso   1.00
H2     H     0.41746   0.12594   0.12694   0.00000  Uiso   1.00
O3     O     0.32413   0.12095   0.11115   0.00000  Uiso   1.00
O4     O     0.32412   0.20317   0.05549   0.00000  Uiso   1.00
C7     C     0.16132   0.41744   0.22503   0.00000  Uiso   1.00
C8     C     0.20829   0.46536   0.23914   0.00000  Uiso   1.00
C9     C     0.25707   0.46536   0.26087   0.00000  Uiso   1.00
C10    C     0.25613   0.41744   0.27498   0.00000  Uiso   1.00
C11    C     0.20842   0.36952   0.26445   0.00000  Uiso   1.00
C12    C     0.16111   0.36952   0.23557   0.00000  Uiso   1.00
H3     H     0.12594   0.41745   0.20639   0.00000  Uiso   1.00
O5     O     0.21201   0.51078   0.23329   0.00000  Uiso   1.00
O6     O     0.29878   0.51078   0.26671   0.00000  Uiso   1.00
H4     H     0.29151   0.41744   0.29363   0.00000  Uiso   1.00
O7     O     0.20317   0.32412   0.27784   0.00000  Uiso   1.00
O8     O     0.12095   0.32412   0.22218   0.00000  Uiso   1.00
C13    C     0.74388   0.16133   0.39169   0.00000  Uiso   1.00
C14    C     0.74293   0.20830   0.40579   0.00000  Uiso   1.00
C15    C     0.79171   0.25708   0.42753   0.00000  Uiso   1.00
C16    C     0.83868   0.25613   0.44164   0.00000  Uiso   1.00
C17    C     0.83890   0.20842   0.43111   0.00000  Uiso   1.00
C18    C     0.79158   0.16111   0.40222   0.00000  Uiso   1.00
H5     H     0.70850   0.12595   0.37304   0.00000  Uiso   1.00
O9     O     0.70122   0.21202   0.39995   0.00000  Uiso   1.00
O10    O     0.78799   0.29879   0.43338   0.00000  Uiso   1.00
H6     H     0.87406   0.29151   0.46028   0.00000  Uiso   1.00
O11    O     0.87905   0.20317   0.44449   0.00000  Uiso   1.00
O12    O     0.79683   0.12096   0.38883   0.00000  Uiso   1.00
C19    C     0.58254   0.83868   0.60829   0.00000  Uiso   1.00
C20    C     0.53463   0.79171   0.59419   0.00000  Uiso   1.00
C21    C     0.53464   0.74293   0.57245   0.00000  Uiso   1.00
C22    C     0.58256   0.74387   0.55835   0.00000  Uiso   1.00
C23    C     0.63047   0.79158   0.56888   0.00000  Uiso   1.00
C24    C     0.63047   0.83889   0.59777   0.00000  Uiso   1.00
H7     H     0.58254   0.87406   0.62694   0.00000  Uiso   1.00
O13    O     0.48920   0.78799   0.60004   0.00000  Uiso   1.00
O14    O     0.48921   0.70122   0.56661   0.00000  Uiso   1.00
H8     H     0.58256   0.70849   0.53970   0.00000  Uiso   1.00
O15    O     0.67588   0.79683   0.55549   0.00000  Uiso   1.00
O16    O     0.67587   0.87905   0.61115   0.00000  Uiso   1.00
C25    C     0.74387   0.58256   0.77498   0.00000  Uiso   1.00
C26    C     0.74293   0.53464   0.76087   0.00000  Uiso   1.00
C27    C     0.79171   0.53464   0.73913   0.00000  Uiso   1.00
C28    C     0.83868   0.58256   0.72503   0.00000  Uiso   1.00
C29    C     0.83889   0.63048   0.73556   0.00000  Uiso   1.00
C30    C     0.79158   0.63048   0.76445   0.00000  Uiso   1.00
H9     H     0.70849   0.58256   0.79363   0.00000  Uiso   1.00
O17    O     0.70122   0.48922   0.76671   0.00000  Uiso   1.00
O18    O     0.78799   0.48921   0.73329   0.00000  Uiso   1.00
H10    H     0.87406   0.58255   0.70639   0.00000  Uiso   1.00
O19    O     0.87905   0.67588   0.72218   0.00000  Uiso   1.00
O20    O     0.79683   0.67588   0.77784   0.00000  Uiso   1.00
C31    C     0.25612   0.83867   0.89168   0.00000  Uiso   1.00
C32    C     0.25707   0.79170   0.90579   0.00000  Uiso   1.00
C33    C     0.20829   0.74292   0.92753   0.00000  Uiso   1.00
C34    C     0.16132   0.74387   0.94163   0.00000  Uiso   1.00
C35    C     0.16110   0.79158   0.93110   0.00000  Uiso   1.00
C36    C     0.20842   0.83889   0.90221   0.00000  Uiso   1.00
H11    H     0.29150   0.87405   0.87304   0.00000  Uiso   1.00
O21    O     0.29878   0.78798   0.89994   0.00000  Uiso   1.00
O22    O     0.21201   0.70121   0.93337   0.00000  Uiso   1.00
H12    H     0.12594   0.70849   0.96028   0.00000  Uiso   1.00
O23    O     0.12095   0.79683   0.94449   0.00000  Uiso   1.00
O24    O     0.20317   0.87904   0.88883   0.00000  Uiso   1.00
C37    C     0.67993   0.40061   0.96347   0.00000  Uiso   1.00
C38    C     0.68629   0.40219   0.88651   0.00000  Uiso   1.00
C39    C     0.64180   0.36634   0.83925   0.00000  Uiso   1.00
C40    C     0.59940   0.32007   0.86985   0.00000  Uiso   1.00
C41    C     0.59782   0.31372   0.94681   0.00000  Uiso   1.00
C42    C     0.63367   0.35821   0.99407   0.00000  Uiso   1.00
H13    H     0.71033   0.43065   0.99825   0.00000  Uiso   1.00
O25    O     0.72888   0.43442   0.85313   0.00000  Uiso   1.00
O26    O     0.64626   0.37863   0.77098   0.00000  Uiso   1.00
H14    H     0.56936   0.28968   0.83507   0.00000  Uiso   1.00
O27    O     0.56559   0.27113   0.98019   0.00000  Uiso   1.00
O28    O     0.62138   0.35374   0.06234   0.00000  Uiso   1.00
C43    C     0.27933   0.67993   0.13014   0.00000  Uiso   1.00
C44    C     0.27546   0.63366   0.16074   0.00000  Uiso   1.00
C45    C     0.28410   0.59780   0.11349   0.00000  Uiso   1.00
C46    C     0.27933   0.59939   0.03652   0.00000  Uiso   1.00
C47    C     0.27547   0.64179   0.00592   0.00000  Uiso   1.00
C48    C     0.28410   0.68628   0.05317   0.00000  Uiso   1.00
H15    H     0.27968   0.71032   0.16491   0.00000  Uiso   1.00
O29    O     0.26764   0.62138   0.22901   0.00000  Uiso   1.00
O30    O     0.29446   0.56558   0.14686   0.00000  Uiso   1.00
H16    H     0.27968   0.56934   0.00174   0.00000  Uiso   1.00
O31    O     0.26764   0.64625   0.93765   0.00000  Uiso   1.00
O32    O     0.29446   0.72887   0.01979   0.00000  Uiso   1.00
C49    C     0.59940   0.27934   0.29680   0.00000  Uiso   1.00
C50    C     0.64180   0.27548   0.32741   0.00000  Uiso   1.00
C51    C     0.68629   0.28411   0.28015   0.00000  Uiso   1.00
C52    C     0.67994   0.27934   0.20318   0.00000  Uiso   1.00
C53    C     0.63367   0.27547   0.17258   0.00000  Uiso   1.00
C54    C     0.59782   0.28411   0.21983   0.00000  Uiso   1.00
H17    H     0.56935   0.27969   0.33158   0.00000  Uiso   1.00
O33    O     0.64626   0.26765   0.39568   0.00000  Uiso   1.00
O34    O     0.72888   0.29447   0.31353   0.00000  Uiso   1.00
H18    H     0.71034   0.27969   0.16841   0.00000  Uiso   1.00
O35    O     0.62139   0.26765   0.10431   0.00000  Uiso   1.00
O36    O     0.56559   0.29447   0.18646   0.00000  Uiso   1.00
C55    C     0.32007   0.59939   0.46347   0.00000  Uiso   1.00
C56    C     0.31371   0.59781   0.38651   0.00000  Uiso   1.00
C57    C     0.35820   0.63366   0.33925   0.00000  Uiso   1.00
C58    C     0.40060   0.67993   0.36985   0.00000  Uiso   1.00
C59    C     0.40218   0.68628   0.44681   0.00000  Uiso   1.00
C60    C     0.36634   0.64179   0.49407   0.00000  Uiso   1.00
H19    H     0.28967   0.56935   0.49825   0.00000  Uiso   1.00
O37    O     0.27112   0.56558   0.35313   0.00000  Uiso   1.00
O38    O     0.35374   0.62137   0.27098   0.00000  Uiso   1.00
H20    H     0.43064   0.71032   0.33507   0.00000  Uiso   1.00
O39    O     0.43441   0.72887   0.48019   0.00000  Uiso   1.00
O40    O     0.37862   0.64626   0.56234   0.00000  Uiso   1.00
C61    C     0.72067   0.32007   0.63014   0.00000  Uiso   1.00
C62    C     0.72453   0.36634   0.66074   0.00000  Uiso   1.00
C63    C     0.71590   0.40219   0.61349   0.00000  Uiso   1.00
C64    C     0.72067   0.40061   0.53652   0.00000  Uiso   1.00
C65    C     0.72453   0.35821   0.50592   0.00000  Uiso   1.00
C66    C     0.71590   0.31372   0.55317   0.00000  Uiso   1.00
H21    H     0.72032   0.28968   0.66491   0.00000  Uiso   1.00
O41    O     0.73236   0.37862   0.72901   0.00000  Uiso   1.00
O42    O     0.70554   0.43442   0.64686   0.00000  Uiso   1.00
H22    H     0.72032   0.43066   0.50174   0.00000  Uiso   1.00
O43    O     0.73236   0.35375   0.43765   0.00000  Uiso   1.00
O44    O     0.70554   0.27113   0.51979   0.00000  Uiso   1.00
C67    C     0.40060   0.72066   0.79680   0.00000  Uiso   1.00
C68    C     0.35820   0.72452   0.82741   0.00000  Uiso   1.00
C69    C     0.31371   0.71589   0.78015   0.00000  Uiso   1.00
C70    C     0.32006   0.72066   0.70318   0.00000  Uiso   1.00
C71    C     0.36633   0.72453   0.67258   0.00000  Uiso   1.00
C72    C     0.40219   0.71589   0.71983   0.00000  Uiso   1.00
H23    H     0.43065   0.72031   0.83158   0.00000  Uiso   1.00
O45    O     0.35374   0.73235   0.89568   0.00000  Uiso   1.00
O46    O     0.27112   0.70553   0.81353   0.00000  Uiso   1.00
H24    H     0.28966   0.72031   0.66841   0.00000  Uiso   1.00
O47    O     0.37861   0.73235   0.60431   0.00000  Uiso   1.00
O48    O     0.43441   0.70553   0.68646   0.00000  Uiso   1.00
C73    C     0.18725   0.97681   0.07285   0.00000  Uiso   1.00
C74    C     0.17557   0.94462   0.01039   0.00000  Uiso   1.00
C75    C     0.17882   0.96804   0.93784   0.00000  Uiso   1.00
C76    C     0.21043   0.02319   0.92714   0.00000  Uiso   1.00
C77    C     0.23095   0.05537   0.98960   0.00000  Uiso   1.00
C78    C     0.21079   0.03196   0.06215   0.00000  Uiso   1.00
H25    H     0.17857   0.95979   0.12749   0.00000  Uiso   1.00
O49    O     0.15958   0.89486   0.01171   0.00000  Uiso   1.00
O50    O     0.15346   0.93531   0.88695   0.00000  Uiso   1.00
H26    H     0.21876   0.04020   0.87251   0.00000  Uiso   1.00
O51    O     0.26472   0.10514   0.98828   0.00000  Uiso   1.00
O52    O     0.21817   0.06469   0.11305   0.00000  Uiso   1.00
C79    C     0.21044   0.18724   0.23952   0.00000  Uiso   1.00
C80    C     0.17882   0.21078   0.22883   0.00000  Uiso   1.00
C81    C     0.17558   0.23095   0.15628   0.00000  Uiso   1.00
C82    C     0.18725   0.21043   0.09382   0.00000  Uiso   1.00
C83    C     0.21078   0.17881   0.10451   0.00000  Uiso   1.00
C84    C     0.23095   0.17557   0.17706   0.00000  Uiso   1.00
H27    H     0.21877   0.17856   0.29416   0.00000  Uiso   1.00
O53    O     0.15347   0.21815   0.27972   0.00000  Uiso   1.00
O54    O     0.15958   0.26472   0.15496   0.00000  Uiso   1.00
H28    H     0.17856   0.21876   0.03918   0.00000  Uiso   1.00
O55    O     0.21816   0.15346   0.05362   0.00000  Uiso   1.00
O56    O     0.26473   0.15958   0.17838   0.00000  Uiso   1.00
C85    C     0.97682   0.18724   0.26048   0.00000  Uiso   1.00
C86    C     0.94463   0.17557   0.32294   0.00000  Uiso   1.00
C87    C     0.96804   0.17882   0.39549   0.00000  Uiso   1.00
C88    C     0.02319   0.21043   0.40619   0.00000  Uiso   1.00
C89    C     0.05538   0.23094   0.34373   0.00000  Uiso   1.00
C90    C     0.03197   0.21078   0.27118   0.00000  Uiso   1.00
H29    H     0.95980   0.17856   0.20585   0.00000  Uiso   1.00
O57    O     0.89486   0.15958   0.32161   0.00000  Uiso   1.00
O58    O     0.93531   0.15346   0.44639   0.00000  Uiso   1.00
H30    H     0.04020   0.21876   0.46083   0.00000  Uiso   1.00
O59    O     0.10514   0.26472   0.34506   0.00000  Uiso   1.00
O60    O     0.06470   0.21815   0.22029   0.00000  Uiso   1.00
C91    C     0.81275   0.02319   0.57285   0.00000  Uiso   1.00
C92    C     0.82443   0.05538   0.51039   0.00000  Uiso   1.00
C93    C     0.82118   0.03196   0.43784   0.00000  Uiso   1.00
C94    C     0.78957   0.97682   0.42714   0.00000  Uiso   1.00
C95    C     0.76905   0.94463   0.48960   0.00000  Uiso   1.00
C96    C     0.78921   0.96804   0.56216   0.00000  Uiso   1.00
H31    H     0.82143   0.04021   0.62749   0.00000  Uiso   1.00
O61    O     0.84042   0.10514   0.51172   0.00000  Uiso   1.00
O62    O     0.84654   0.06470   0.38695   0.00000  Uiso   1.00
H32    H     0.78124   0.95980   0.37251   0.00000  Uiso   1.00
O63    O     0.73528   0.89486   0.48828   0.00000  Uiso   1.00
O64    O     0.78184   0.93531   0.61305   0.00000  Uiso   1.00
C97    C     0.78956   0.81276   0.73952   0.00000  Uiso   1.00
C98    C     0.76905   0.82443   0.67706   0.00000  Uiso   1.00
C99    C     0.78922   0.82119   0.60451   0.00000  Uiso   1.00
C100   C     0.81275   0.78957   0.59382   0.00000  Uiso   1.00
C101   C     0.82443   0.76905   0.65628   0.00000  Uiso   1.00
C102   C     0.82118   0.78922   0.72883   0.00000  Uiso   1.00
H33    H     0.78123   0.82144   0.79416   0.00000  Uiso   1.00
O65    O     0.73527   0.84042   0.67838   0.00000  Uiso   1.00
O66    O     0.78184   0.84654   0.55361   0.00000  Uiso   1.00
H34    H     0.82144   0.78124   0.53918   0.00000  Uiso   1.00
O67    O     0.84042   0.73528   0.65495   0.00000  Uiso   1.00
O68    O     0.84653   0.78185   0.77972   0.00000  Uiso   1.00
C103   C     0.02318   0.81276   0.76048   0.00000  Uiso   1.00
C104   C     0.96803   0.78922   0.77118   0.00000  Uiso   1.00
C105   C     0.94462   0.76906   0.84373   0.00000  Uiso   1.00
C106   C     0.97681   0.78957   0.90619   0.00000  Uiso   1.00
C107   C     0.03196   0.82118   0.89549   0.00000  Uiso   1.00
C108   C     0.05537   0.82443   0.82294   0.00000  Uiso   1.00
H35    H     0.04020   0.82144   0.70584   0.00000  Uiso   1.00
O69    O     0.93530   0.78185   0.72029   0.00000  Uiso   1.00
O70    O     0.89486   0.73528   0.84506   0.00000  Uiso   1.00
H36    H     0.95980   0.78124   0.96083   0.00000  Uiso   1.00
O71    O     0.06469   0.84654   0.94638   0.00000  Uiso   1.00
O72    O     0.10514   0.84042   0.82161   0.00000  Uiso   1.00
loop_
_geom_bond_atom_site_label_1
_geom_bond_atom_site_label_2
_geom_bond_distance
_geom_bond_site_symmetry_2
_ccdc_geom_bond_type
Fe1    O3      1.900   .     S
Fe1    O4      1.900   .     S
Fe1    O51     1.905   1_554 S
Fe1    O52     1.895   .     S
Fe1    O55     1.895   .     S
Fe1    O56     1.905   .     S
Fe2    O7      1.900   .     S
Fe2    O8      1.900   .     S
Fe2    O53     1.895   .     S
Fe2    O54     1.905   .     S
Fe2    O59     1.905   .     S
Fe2    O60     1.895   .     S
Fe3    O11     1.900   .     S
Fe3    O12     1.900   .     S
Fe3    O57     1.905   .     S
Fe3    O58     1.895   .     S
Fe3    O61     1.905   .     S
Fe3    O62     1.895   .     S
Fe4    O15     1.900   .     S
Fe4    O16     1.900   .     S
Fe4    O63     1.905   .     S
Fe4    O64     1.895   .     S
Fe4    O65     1.905   .     S
Fe4    O66     1.895   .     S
Fe5    O19     1.900   .     S
Fe5    O20     1.900   .     S
Fe5    O67     1.905   .     S
Fe5    O68     1.895   .     S
Fe5    O69     1.895   .     S
Fe5    O70     1.905   .     S
Fe6    O23     1.900   .     S
Fe6    O24     1.900   .     S
Fe6    O49     1.905   1_556 S
Fe6    O50     1.895   .     S
Fe6    O71     1.895   .     S
Fe6    O72     1.905   .     S
Fe7    O1      1.900   .     S
Fe7    O2      1.900   .     S
Fe7    O27     1.907   1_554 S
Fe7    O28     1.912   .     S
Fe7    O35     1.912   .     S
Fe7    O36     1.907   .     S
Fe8    O5      1.900   .     S
Fe8    O6      1.900   .     S
Fe8    O29     1.912   .     S
Fe8    O30     1.907   .     S
Fe8    O37     1.907   .     S
Fe8    O38     1.912   .     S
Fe9    O9      1.900   .     S
Fe9    O10     1.900   .     S
Fe9    O33     1.912   .     S
Fe9    O34     1.907   .     S
Fe9    O43     1.912   .     S
Fe9    O44     1.907   .     S
Fe10   O13     1.900   .     S
Fe10   O14     1.900   .     S
Fe10   O39     1.907   .     S
Fe10   O40     1.912   .     S
Fe10   O47     1.912   .     S
Fe10   O48     1.907   .     S
Fe11   O17     1.900   .     S
Fe11   O18     1.900   .     S
Fe11   O25     1.907   .     S
Fe11   O26     1.912   .     S
Fe11   O41     1.912   .     S
Fe11   O42     1.907   .     S
Fe12   O21     1.900   .     S
Fe12   O22     1.900   .     S
Fe12   O31     1.912   .     S
Fe12   O32     1.907   1_556 S
Fe12   O45     1.912   .     S
Fe12   O46     1.907   .     S
C1     C2      1.403   .     A
C1     C6      1.403   .     A
C1     H1      1.083   .     S
C2     C3      1.472   .     S
C2     O1      1.274   .     A
C3     C4      1.403   .     A
C3     O2      1.274   .     A
C4     C5      1.403   .     A
C4     H2      1.083   .     S
C5     C6      1.472   .     S
C5     O3      1.274   .     A
C6     O4      1.274   .     A
C7     C8      1.403   .     A
C7     C12     1.403   .     A
C7     H3      1.083   .     S
C8     C9      1.472   .     S
C8     O5      1.274   .     A
C9     C10     1.403   .     A
C9     O6      1.274   .     A
C10    C11     1.403   .     A
C10    H4      1.083   .     S
C11    C12     1.472   .     S
C11    O7      1.274   .     A
C12    O8      1.274   .     A
C13    C14     1.403   .     A
C13    C18     1.403   .     A
C13    H5      1.083   .     S
C14    C15     1.472   .     S
C14    O9      1.274   .     A
C15    C16     1.403   .     A
C15    O10     1.274   .     A
C16    C17     1.403   .     A
C16    H6      1.083   .     S
C17    C18     1.472   .     S
C17    O11     1.274   .     A
C18    O12     1.274   .     A
C19    C20     1.403   .     A
C19    C24     1.403   .     A
C19    H7      1.083   .     S
C20    C21     1.472   .     S
C20    O13     1.274   .     A
C21    C22     1.403   .     A
C21    O14     1.274   .     A
C22    C23     1.403   .     A
C22    H8      1.083   .     S
C23    C24     1.472   .     S
C23    O15     1.274   .     A
C24    O16     1.274   .     A
C25    C26     1.403   .     A
C25    C30     1.403   .     A
C25    H9      1.083   .     S
C26    C27     1.472   .     S
C26    O17     1.274   .     A
C27    C28     1.403   .     A
C27    O18     1.274   .     A
C28    C29     1.403   .     A
C28    H10     1.083   .     S
C29    C30     1.472   .     S
C29    O19     1.274   .     A
C30    O20     1.274   .     A
C31    C32     1.403   .     A
C31    C36     1.403   .     A
C31    H11     1.083   .     S
C32    C33     1.472   .     S
C32    O21     1.274   .     A
C33    C34     1.403   .     A
C33    O22     1.274   .     A
C34    C35     1.403   .     A
C34    H12     1.083   .     S
C35    C36     1.472   .     S
C35    O23     1.274   .     A
C36    O24     1.274   .     A
C37    C38     1.411   .     A
C37    C42     1.407   .     A
C37    H13     1.083   .     S
C38    C39     1.466   .     S
C38    O25     1.272   .     A
C39    C40     1.407   .     A
C39    O26     1.281   .     A
C40    C41     1.411   .     A
C40    H14     1.083   .     S
C41    C42     1.466   .     S
C41    O27     1.272   .     A
C42    O28     1.281   1_556 A
O27    Fe7     1.907   1_556 S
O28    C42     1.281   1_554 A
C43    C44     1.407   .     A
C43    C48     1.411   .     A
C43    H15     1.083   .     S
C44    C45     1.466   .     S
C44    O29     1.281   .     A
C45    C46     1.411   .     A
C45    O30     1.272   .     A
C46    C47     1.407   .     A
C46    H16     1.083   .     S
C47    C48     1.466   .     S
C47    O31     1.281   1_554 A
C48    O32     1.272   .     A
O31    C47     1.281   1_556 A
O32    Fe12    1.907   1_554 S
C49    C50     1.407   .     A
C49    C54     1.411   .     A
C49    H17     1.083   .     S
C50    C51     1.466   .     S
C50    O33     1.281   .     A
C51    C52     1.411   .     A
C51    O34     1.272   .     A
C52    C53     1.407   .     A
C52    H18     1.083   .     S
C53    C54     1.466   .     S
C53    O35     1.281   .     A
C54    O36     1.272   .     A
C55    C56     1.411   .     A
C55    C60     1.407   .     A
C55    H19     1.083   .     S
C56    C57     1.466   .     S
C56    O37     1.272   .     A
C57    C58     1.407   .     A
C57    O38     1.281   .     A
C58    C59     1.411   .     A
C58    H20     1.083   .     S
C59    C60     1.466   .     S
C59    O39     1.272   .     A
C60    O40     1.281   .     A
C61    C62     1.407   .     A
C61    C66     1.411   .     A
C61    H21     1.083   .     S
C62    C63     1.466   .     S
C62    O41     1.281   .     A
C63    C64     1.411   .     A
C63    O42     1.272   .     A
C64    C65     1.407   .     A
C64    H22     1.083   .     S
C65    C66     1.466   .     S
C65    O43     1.281   .     A
C66    O44     1.272   .     A
C67    C68     1.407   .     A
C67    C72     1.411   .     A
C67    H23     1.083   .     S
C68    C69     1.466   .     S
C68    O45     1.281   .     A
C69    C70     1.411   .     A
C69    O46     1.272   .     A
C70    C71     1.407   .     A
C70    H24     1.083   .     S
C71    C72     1.466   .     S
C71    O47     1.281   .     A
C72    O48     1.272   .     A
C73    C74     1.402   .     A
C73    C78     1.407   1_565 A
C73    H25     1.083   .     S
C74    C75     1.467   1_554 S
C74    O49     1.279   .     A
C75    C74     1.467   1_556 S
C75    C76     1.407   1_565 A
C75    O50     1.267   .     A
C76    C75     1.407   1_545 A
C76    C77     1.402   .     A
C76    H26     1.083   .     S
C77    C78     1.467   1_556 S
C77    O51     1.279   .     A
C78    C73     1.407   1_545 A
C78    C77     1.467   1_554 S
C78    O52     1.267   .     A
O49    Fe6     1.905   1_554 S
O51    Fe1     1.905   1_556 S
C79    C80     1.407   .     A
C79    C84     1.402   .     A
C79    H27     1.083   .     S
C80    C81     1.467   .     S
C80    O53     1.267   .     A
C81    C82     1.402   .     A
C81    O54     1.279   .     A
C82    C83     1.407   .     A
C82    H28     1.083   .     S
C83    C84     1.467   .     S
C83    O55     1.267   .     A
C84    O56     1.279   .     A
C85    C86     1.402   .     A
C85    C90     1.407   1_655 A
C85    H29     1.083   .     S
C86    C87     1.467   .     S
C86    O57     1.279   .     A
C87    C88     1.407   1_655 A
C87    O58     1.267   .     A
C88    C87     1.407   1_455 A
C88    C89     1.402   .     A
C88    H30     1.083   .     S
C89    C90     1.467   .     S
C89    O59     1.279   .     A
C90    C85     1.407   1_455 A
C90    O60     1.267   .     A
C91    C92     1.402   .     A
C91    C96     1.407   1_545 A
C91    H31     1.083   .     S
C92    C93     1.467   .     S
C92    O61     1.279   .     A
C93    C94     1.407   1_545 A
C93    O62     1.267   .     A
C94    C93     1.407   1_565 A
C94    C95     1.402   .     A
C94    H32     1.083   .     S
C95    C96     1.467   .     S
C95    O63     1.279   .     A
C96    C91     1.407   1_565 A
C96    O64     1.267   .     A
C97    C98     1.402   .     A
C97    C102    1.407   .     A
C97    H33     1.083   .     S
C98    C99     1.467   .     S
C98    O65     1.279   .     A
C99    C100    1.407   .     A
C99    O66     1.267   .     A
C100   C101    1.402   .     A
C100   H34     1.083   .     S
C101   C102    1.467   .     S
C101   O67     1.279   .     A
C102   O68     1.267   .     A
C103   C104    1.407   1_455 A
C103   C108    1.402   .     A
C103   H35     1.083   .     S
C104   C103    1.407   1_655 A
C104   C105    1.467   .     S
C104   O69     1.267   .     A
C105   C106    1.402   .     A
C105   O70     1.279   .     A
C106   C107    1.407   1_655 A
C106   H36     1.083   .     S
C107   C106    1.407   1_455 A
C107   C108    1.467   .     S
C107   O71     1.267   .     A
C108   O72     1.279   .     A
