data_utg_Feoct_DHBQ
_audit_creation_date              2023-08-06
_audit_creation_method            'Materials Studio'
_symmetry_space_group_name_H-M    'P1'
_symmetry_Int_Tables_number       1
_symmetry_cell_setting            triclinic
loop_
_symmetry_equiv_pos_as_xyz
  x,y,z
_cell_length_a                    16.5502
_cell_length_b                    16.5502
_cell_length_c                    50.0989
_cell_angle_alpha                 89.9996
_cell_angle_beta                  89.9996
_cell_angle_gamma                 89.9926
loop_
_atom_site_label
_atom_site_type_symbol
_atom_site_fract_x
_atom_site_fract_y
_atom_site_fract_z
_atom_site_U_iso_or_equiv
_atom_site_adp_type
_atom_site_occupancy
Fe1    Fe    0.20513   0.21066   0.19479   0.00000  Uiso   1.00
Fe2    Fe    0.79085   0.70443   0.44513   0.00000  Uiso   1.00
Fe3    Fe    0.29545   0.28983   0.69495   0.00000  Uiso   1.00
Fe4    Fe    0.70882   0.79581   0.94501   0.00000  Uiso   1.00
Fe5    Fe    0.20463   0.29109   0.05481   0.00000  Uiso   1.00
Fe6    Fe    0.71047   0.70499   0.30515   0.00000  Uiso   1.00
Fe7    Fe    0.29612   0.20907   0.55502   0.00000  Uiso   1.00
Fe8    Fe    0.79026   0.79499   0.80507   0.00000  Uiso   1.00
Fe9    Fe    0.57425   0.63388   0.68814   0.00000  Uiso   1.00
Fe10   Fe    0.36498   0.07488   0.93775   0.00000  Uiso   1.00
Fe11   Fe    0.92512   0.86707   0.18791   0.00000  Uiso   1.00
Fe12   Fe    0.13405   0.42408   0.43799   0.00000  Uiso   1.00
Fe13   Fe    0.57534   0.86559   0.56220   0.00000  Uiso   1.00
Fe14   Fe    0.13350   0.07459   0.81181   0.00000  Uiso   1.00
Fe15   Fe    0.92391   0.63407   0.06210   0.00000  Uiso   1.00
Fe16   Fe    0.36701   0.42473   0.31216   0.00000  Uiso   1.00
C1     C     0.36465   0.28024   0.24912   0.00000  Uiso   1.00
C2     C     0.30009   0.26486   0.23204   0.00000  Uiso   1.00
C3     C     0.21880   0.29663   0.23795   0.00000  Uiso   1.00
C4     C     0.20594   0.34899   0.25927   0.00000  Uiso   1.00
C5     C     0.27153   0.36800   0.27546   0.00000  Uiso   1.00
C6     C     0.35108   0.33018   0.27105   0.00000  Uiso   1.00
H1     H     0.42387   0.25489   0.24532   0.00000  Uiso   1.00
O1     O     0.30709   0.22295   0.21097   0.00000  Uiso   1.00
O2     O     0.16264   0.27474   0.22243   0.00000  Uiso   1.00
H2     H     0.14689   0.37494   0.26296   0.00000  Uiso   1.00
O3     O     0.26665   0.41766   0.29462   0.00000  Uiso   1.00
O4     O     0.40570   0.34705   0.28785   0.00000  Uiso   1.00
C7     C     0.72088   0.86353   0.49951   0.00000  Uiso   1.00
C8     C     0.73645   0.79912   0.48240   0.00000  Uiso   1.00
C9     C     0.70464   0.71778   0.48823   0.00000  Uiso   1.00
C10    C     0.65209   0.70476   0.50948   0.00000  Uiso   1.00
C11    C     0.63267   0.77028   0.52562   0.00000  Uiso   1.00
C12    C     0.67050   0.84987   0.52131   0.00000  Uiso   1.00
H3     H     0.74642   0.92273   0.49583   0.00000  Uiso   1.00
O5     O     0.77855   0.80627   0.46138   0.00000  Uiso   1.00
O6     O     0.72669   0.66174   0.47270   0.00000  Uiso   1.00
H4     H     0.62637   0.64561   0.51316   0.00000  Uiso   1.00
O7     O     0.58263   0.76532   0.54466   0.00000  Uiso   1.00
O8     O     0.65331   0.90443   0.53807   0.00000  Uiso   1.00
C13    C     0.13573   0.21948   0.74898   0.00000  Uiso   1.00
C14    C     0.14929   0.16936   0.77085   0.00000  Uiso   1.00
C15    C     0.22894   0.13177   0.77529   0.00000  Uiso   1.00
C16    C     0.29464   0.15137   0.75928   0.00000  Uiso   1.00
C17    C     0.28175   0.20379   0.73800   0.00000  Uiso   1.00
C18    C     0.20037   0.23521   0.73200   0.00000  Uiso   1.00
H5     H     0.07649   0.24476   0.74516   0.00000  Uiso   1.00
O9     O     0.09462   0.15219   0.78756   0.00000  Uiso   1.00
O10    O     0.23384   0.08180   0.79435   0.00000  Uiso   1.00
H6     H     0.35384   0.12592   0.76307   0.00000  Uiso   1.00
O11    O     0.33798   0.22602   0.72260   0.00000  Uiso   1.00
O12    O     0.19338   0.27719   0.71096   0.00000  Uiso   1.00
C19    C     0.77871   0.63627   0.99925   0.00000  Uiso   1.00
C20    C     0.82875   0.64988   0.02115   0.00000  Uiso   1.00
C21    C     0.86642   0.72951   0.02555   0.00000  Uiso   1.00
C22    C     0.84702   0.79514   0.00945   0.00000  Uiso   1.00
C23    C     0.79460   0.78224   0.98817   0.00000  Uiso   1.00
C24    C     0.76307   0.70088   0.98221   0.00000  Uiso   1.00
H7     H     0.75358   0.57698   0.99540   0.00000  Uiso   1.00
O13    O     0.84592   0.59526   0.03792   0.00000  Uiso   1.00
O14    O     0.91637   0.73442   0.04461   0.00000  Uiso   1.00
H8     H     0.87284   0.85425   0.01313   0.00000  Uiso   1.00
O15    O     0.77256   0.83842   0.97269   0.00000  Uiso   1.00
O16    O     0.72121   0.69385   0.96115   0.00000  Uiso   1.00
C25    C     0.20441   0.15222   0.99048   0.00000  Uiso   1.00
C26    C     0.26987   0.13250   0.97434   0.00000  Uiso   1.00
C27    C     0.34958   0.17008   0.97864   0.00000  Uiso   1.00
C28    C     0.36342   0.22051   0.00040   0.00000  Uiso   1.00
C29    C     0.29907   0.23641   0.01751   0.00000  Uiso   1.00
C30    C     0.21764   0.20479   0.01171   0.00000  Uiso   1.00
H9     H     0.14515   0.12672   0.98680   0.00000  Uiso   1.00
O17    O     0.26474   0.08244   0.95531   0.00000  Uiso   1.00
O18    O     0.40410   0.15264   0.96189   0.00000  Uiso   1.00
H10    H     0.42271   0.24584   0.00405   0.00000  Uiso   1.00
O19    O     0.30638   0.27864   0.03849   0.00000  Uiso   1.00
O20    O     0.16171   0.22703   0.02726   0.00000  Uiso   1.00
C31    C     0.78041   0.86459   0.25088   0.00000  Uiso   1.00
C32    C     0.83053   0.85108   0.22899   0.00000  Uiso   1.00
C33    C     0.86834   0.77152   0.22458   0.00000  Uiso   1.00
C34    C     0.84916   0.70588   0.24073   0.00000  Uiso   1.00
C35    C     0.79662   0.71869   0.26201   0.00000  Uiso   1.00
C36    C     0.76484   0.79999   0.26793   0.00000  Uiso   1.00
H11    H     0.75504   0.92382   0.25466   0.00000  Uiso   1.00
O21    O     0.84752   0.90575   0.21223   0.00000  Uiso   1.00
O22    O     0.91812   0.76671   0.20546   0.00000  Uiso   1.00
H12    H     0.87506   0.64681   0.23703   0.00000  Uiso   1.00
O23    O     0.77456   0.66250   0.27750   0.00000  Uiso   1.00
O24    O     0.72276   0.80695   0.28895   0.00000  Uiso   1.00
C37    C     0.13650   0.27900   0.50085   0.00000  Uiso   1.00
C38    C     0.15003   0.32913   0.47897   0.00000  Uiso   1.00
C39    C     0.22958   0.36699   0.47459   0.00000  Uiso   1.00
C40    C     0.29521   0.34781   0.49072   0.00000  Uiso   1.00
C41    C     0.28240   0.29523   0.51196   0.00000  Uiso   1.00
C42    C     0.20112   0.26340   0.51787   0.00000  Uiso   1.00
H13    H     0.07728   0.25367   0.50466   0.00000  Uiso   1.00
O25    O     0.09538   0.34616   0.46221   0.00000  Uiso   1.00
O26    O     0.23441   0.41685   0.45549   0.00000  Uiso   1.00
H14    H     0.35426   0.37382   0.48707   0.00000  Uiso   1.00
O27    O     0.33860   0.27321   0.52743   0.00000  Uiso   1.00
O28    O     0.19416   0.22128   0.53888   0.00000  Uiso   1.00
C43    C     0.71942   0.63553   0.75096   0.00000  Uiso   1.00
C44    C     0.66916   0.64929   0.72913   0.00000  Uiso   1.00
C45    C     0.63163   0.72901   0.72475   0.00000  Uiso   1.00
C46    C     0.65139   0.79457   0.74082   0.00000  Uiso   1.00
C47    C     0.70397   0.78149   0.76204   0.00000  Uiso   1.00
C48    C     0.73542   0.70007   0.76797   0.00000  Uiso   1.00
H15    H     0.74463   0.57622   0.75471   0.00000  Uiso   1.00
O29    O     0.65183   0.59474   0.71238   0.00000  Uiso   1.00
O30    O     0.58162   0.73408   0.70571   0.00000  Uiso   1.00
H16    H     0.62595   0.85383   0.73710   0.00000  Uiso   1.00
O31    O     0.72636   0.83762   0.77746   0.00000  Uiso   1.00
O32    O     0.77761   0.69298   0.78897   0.00000  Uiso   1.00
C49    C     0.25438   0.33743   0.12966   0.00000  Uiso   1.00
C50    C     0.25203   0.30701   0.10374   0.00000  Uiso   1.00
C51    C     0.24428   0.21941   0.09907   0.00000  Uiso   1.00
C52    C     0.25423   0.16436   0.11989   0.00000  Uiso   1.00
C53    C     0.25206   0.19479   0.14581   0.00000  Uiso   1.00
C54    C     0.24443   0.28238   0.15049   0.00000  Uiso   1.00
H17    H     0.25234   0.40193   0.13327   0.00000  Uiso   1.00
O33    O     0.24740   0.35209   0.08331   0.00000  Uiso   1.00
O34    O     0.22358   0.19834   0.07577   0.00000  Uiso   1.00
H18    H     0.25206   0.09987   0.11630   0.00000  Uiso   1.00
O35    O     0.24753   0.14968   0.16623   0.00000  Uiso   1.00
O36    O     0.22385   0.30344   0.17381   0.00000  Uiso   1.00
C55    C     0.66422   0.75422   0.38004   0.00000  Uiso   1.00
C56    C     0.71925   0.74412   0.40086   0.00000  Uiso   1.00
C57    C     0.80686   0.75172   0.39619   0.00000  Uiso   1.00
C58    C     0.83729   0.75406   0.37027   0.00000  Uiso   1.00
C59    C     0.78223   0.74426   0.34944   0.00000  Uiso   1.00
C60    C     0.69464   0.75198   0.35413   0.00000  Uiso   1.00
H19    H     0.59972   0.75219   0.38364   0.00000  Uiso   1.00
O37    O     0.69814   0.72341   0.42415   0.00000  Uiso   1.00
O38    O     0.85194   0.74698   0.41662   0.00000  Uiso   1.00
H20    H     0.90179   0.75188   0.36667   0.00000  Uiso   1.00
O39    O     0.80327   0.72373   0.32612   0.00000  Uiso   1.00
O40    O     0.64952   0.74745   0.33370   0.00000  Uiso   1.00
C61    C     0.24715   0.16271   0.62989   0.00000  Uiso   1.00
C62    C     0.25680   0.21787   0.65068   0.00000  Uiso   1.00
C63    C     0.24881   0.30544   0.64596   0.00000  Uiso   1.00
C64    C     0.24654   0.33576   0.62005   0.00000  Uiso   1.00
C65    C     0.25671   0.28068   0.59927   0.00000  Uiso   1.00
C66    C     0.24925   0.19307   0.60397   0.00000  Uiso   1.00
H21    H     0.24953   0.09824   0.63352   0.00000  Uiso   1.00
O41    O     0.27736   0.19695   0.67400   0.00000  Uiso   1.00
O42    O     0.25310   0.35063   0.66636   0.00000  Uiso   1.00
H22    H     0.24846   0.40025   0.61641   0.00000  Uiso   1.00
O43    O     0.27734   0.30176   0.57597   0.00000  Uiso   1.00
O44    O     0.25384   0.14795   0.58356   0.00000  Uiso   1.00
C67    C     0.66325   0.74649   0.87012   0.00000  Uiso   1.00
C68    C     0.71844   0.75627   0.84935   0.00000  Uiso   1.00
C69    C     0.80601   0.74855   0.85409   0.00000  Uiso   1.00
C70    C     0.83625   0.74664   0.88004   0.00000  Uiso   1.00
C71    C     0.78100   0.75667   0.90081   0.00000  Uiso   1.00
C72    C     0.69344   0.74887   0.89604   0.00000  Uiso   1.00
H23    H     0.59880   0.74857   0.86645   0.00000  Uiso   1.00
O45    O     0.69748   0.77669   0.82602   0.00000  Uiso   1.00
O46    O     0.85118   0.75271   0.83368   0.00000  Uiso   1.00
H24    H     0.90072   0.74878   0.88371   0.00000  Uiso   1.00
O47    O     0.80181   0.77736   0.92412   0.00000  Uiso   1.00
O48    O     0.64814   0.75336   0.91642   0.00000  Uiso   1.00
C73    C     0.66495   0.74964   0.62522   0.00000  Uiso   1.00
C74    C     0.62165   0.79066   0.60541   0.00000  Uiso   1.00
C75    C     0.53257   0.78884   0.60517   0.00000  Uiso   1.00
C76    C     0.48933   0.74990   0.62511   0.00000  Uiso   1.00
C77    C     0.53224   0.71083   0.64511   0.00000  Uiso   1.00
C78    C     0.62132   0.70875   0.64499   0.00000  Uiso   1.00
H25    H     0.73039   0.74954   0.62525   0.00000  Uiso   1.00
O49    O     0.65513   0.83006   0.58662   0.00000  Uiso   1.00
O50    O     0.49809   0.82417   0.58594   0.00000  Uiso   1.00
H26    H     0.42387   0.74999   0.62507   0.00000  Uiso   1.00
O51    O     0.49743   0.67559   0.66429   0.00000  Uiso   1.00
O52    O     0.65445   0.66928   0.66383   0.00000  Uiso   1.00
C79    C     0.24893  -0.01061   0.87487   0.00000  Uiso   1.00
C80    C     0.21008   0.03243   0.85487   0.00000  Uiso   1.00
C81    C     0.20820   0.12151   0.85500   0.00000  Uiso   1.00
C82    C     0.24918   0.16502   0.87477   0.00000  Uiso   1.00
C83    C     0.29012   0.12157   0.89457   0.00000  Uiso   1.00
C84    C     0.28804   0.03250   0.89479   0.00000  Uiso   1.00
H27    H     0.24871  -0.07607   0.87493   0.00000  Uiso   1.00
O53    O     0.17489  -0.00230   0.83567   0.00000  Uiso   1.00
O54    O     0.16882   0.15475   0.83616   0.00000  Uiso   1.00
H28    H     0.24919   0.23046   0.87476   0.00000  Uiso   1.00
O55    O     0.32962   0.15488   0.91336   0.00000  Uiso   1.00
O56    O     0.32329  -0.00215   0.91400   0.00000  Uiso   1.00
C85    C     1.00991   0.75045   0.12493   0.00000  Uiso   1.00
C86    C     0.96664   0.71113   0.10507   0.00000  Uiso   1.00
C87    C     0.87758   0.70917   0.10534   0.00000  Uiso   1.00
C88    C     0.83431   0.75038   0.12515   0.00000  Uiso   1.00
C89    C     0.87799   0.79176   0.14481   0.00000  Uiso   1.00
C90    C     0.96706   0.78988   0.14488   0.00000  Uiso   1.00
H29    H     1.07536   0.75033   0.12488   0.00000  Uiso   1.00
O57    O     1.00111   0.67558   0.08587   0.00000  Uiso   1.00
O58    O     0.84412   0.66948   0.08660   0.00000  Uiso   1.00
H30    H     0.76888   0.75028   0.12527   0.00000  Uiso   1.00
O59    O     0.84490   0.83150   0.16361   0.00000  Uiso   1.00
O60    O     1.00191   0.82558   0.16398   0.00000  Uiso   1.00
C91    C     0.25050   0.50979   0.37513   0.00000  Uiso   1.00
C92    C     0.28988   0.46683   0.35519   0.00000  Uiso   1.00
C93    C     0.29179   0.37777   0.35530   0.00000  Uiso   1.00
C94    C     0.25055   0.33419   0.37503   0.00000  Uiso   1.00
C95    C     0.20926   0.37756   0.39479   0.00000  Uiso   1.00
C96    C     0.21113   0.46662   0.39501   0.00000  Uiso   1.00
H31    H     0.25051   0.57524   0.37517   0.00000  Uiso   1.00
O61    O     0.32553   0.50159   0.33607   0.00000  Uiso   1.00
O62    O     0.33147   0.34459   0.33650   0.00000  Uiso   1.00
H32    H     0.25063   0.26876   0.37499   0.00000  Uiso   1.00
O63    O     0.16958   0.34418   0.41355   0.00000  Uiso   1.00
O64    O     0.17547   0.50118   0.41417   0.00000  Uiso   1.00
C97    C     1.00699   0.09001   0.17497   0.00000  Uiso   1.00
C98    C     0.98696   1.01145   0.18284   0.00000  Uiso   1.00
C99    C     1.03103   0.97149   0.20475   0.00000  Uiso   1.00
C100   C     0.09672   1.00852   0.21695   0.00000  Uiso   1.00
C101   C     0.12156   0.08315   0.20724   0.00000  Uiso   1.00
C102   C     0.07456   0.12621   0.18668   0.00000  Uiso   1.00
H33    H     0.97412   0.11999   0.15912   0.00000  Uiso   1.00
O65    O     0.93207   0.96993   0.17160   0.00000  Uiso   1.00
O66    O     1.00785   0.90117   0.21102   0.00000  Uiso   1.00
H34    H     0.13072   0.97776   0.23238   0.00000  Uiso   1.00
O67    O     0.18634   0.11651   0.21482   0.00000  Uiso   1.00
O68    O     0.10152   0.19490   0.17962   0.00000  Uiso   1.00
C103   C    -0.00718   0.59557   0.46726   0.00000  Uiso   1.00
C104   C     0.91821   0.62060   0.45757   0.00000  Uiso   1.00
C105   C     0.87512   0.57382   0.43696   0.00000  Uiso   1.00
C106   C     0.91122   0.50629   0.42521   0.00000  Uiso   1.00
C107   C    -0.01025   0.48609   0.43305   0.00000  Uiso   1.00
C108   C     0.02975   0.52989   0.45500   0.00000  Uiso   1.00
H35    H     0.02367   0.62945   0.48270   0.00000  Uiso   1.00
O69    O     0.88493   0.68539   0.46518   0.00000  Uiso   1.00
O70    O     0.80652   0.60094   0.42989   0.00000  Uiso   1.00
H36    H     0.88120   0.47365   0.40932   0.00000  Uiso   1.00
O71    O     0.03119   0.43128   0.42173   0.00000  Uiso   1.00
O72    O     0.10006   0.50655   0.46124   0.00000  Uiso   1.00
C109   C     0.49291   0.41108   0.67525   0.00000  Uiso   1.00
C110   C     0.42559   0.37465   0.68697   0.00000  Uiso   1.00
C111   C     0.37831   0.41759   0.70749   0.00000  Uiso   1.00
C112   C     0.40282   0.49233   0.71721   0.00000  Uiso   1.00
C113   C     0.46838   0.52957   0.70499   0.00000  Uiso   1.00
C114   C     0.51250   0.48971   0.68307   0.00000  Uiso   1.00
H37    H     0.52595   0.38115   0.65944   0.00000  Uiso   1.00
O73    O     0.39905   0.30586   0.67991   0.00000  Uiso   1.00
O74    O     0.31358   0.38403   0.71501   0.00000  Uiso   1.00
H38    H     0.36871   0.52295   0.73264   0.00000  Uiso   1.00
O75    O     0.49148   0.59990   0.71127   0.00000  Uiso   1.00
O76    O     0.56716   0.53130   0.67178   0.00000  Uiso   1.00
C115   C     0.50630   0.90364   0.96701   0.00000  Uiso   1.00
C116   C     0.58105   0.87895   0.95737   0.00000  Uiso   1.00
C117   C     0.62415   0.92599   0.93683   0.00000  Uiso   1.00
C118   C     0.58780  -0.00678   0.92500   0.00000  Uiso   1.00
C119   C     0.50914   0.01297   0.93275   0.00000  Uiso   1.00
C120   C     0.46920  -0.03088   0.95471   0.00000  Uiso   1.00
H39    H     0.47559   0.86976   0.98248   0.00000  Uiso   1.00
O77    O     0.61451   0.81427   0.96498   0.00000  Uiso   1.00
O78    O     0.69300   0.89933   0.92986   0.00000  Uiso   1.00
H40    H     0.61780   0.02610   0.90916   0.00000  Uiso   1.00
O79    O     0.46761   0.06757   0.92139   0.00000  Uiso   1.00
O80    O     0.39889  -0.00764   0.96096   0.00000  Uiso   1.00
C121   C     0.09560   0.49315   0.03277   0.00000  Uiso   1.00
C122   C     0.12078   0.41855   0.04245   0.00000  Uiso   1.00
C123   C     0.07409   0.37543   0.06307   0.00000  Uiso   1.00
C124   C     1.00655   0.41143   0.07485   0.00000  Uiso   1.00
C125   C     0.98623   0.48992   0.06702   0.00000  Uiso   1.00
C126   C     1.02990   0.52999   0.04505   0.00000  Uiso   1.00
H41    H     0.12932   0.52400   0.01729   0.00000  Uiso   1.00
O81    O     0.18555   0.38528   0.03480   0.00000  Uiso   1.00
O82    O     0.10125   0.30683   0.07011   0.00000  Uiso   1.00
H42    H     0.97388   0.38128   0.09070   0.00000  Uiso   1.00
O83    O     0.93137   0.53124   0.07835   0.00000  Uiso   1.00
O84    O     1.00633   0.60022   0.03880   0.00000  Uiso   1.00
C127   C     0.50827   0.59643   0.28308   0.00000  Uiso   1.00
C128   C     0.47132   0.53069   0.29529   0.00000  Uiso   1.00
C129   C     0.51135   0.48668   0.31719   0.00000  Uiso   1.00
C130   C     0.58994   0.50676   0.32503   0.00000  Uiso   1.00
C131   C     0.62605   0.57439   0.31331   0.00000  Uiso   1.00
C132   C     0.58292   0.62134   0.29276   0.00000  Uiso   1.00
H43    H     0.47746   0.63034   0.26764   0.00000  Uiso   1.00
O85    O     0.40104   0.50741   0.28902   0.00000  Uiso   1.00
O86    O     0.46988   0.43177   0.32845   0.00000  Uiso   1.00
H44    H     0.62006   0.47382   0.34084   0.00000  Uiso   1.00
O87    O     0.69476   0.60138   0.32033   0.00000  Uiso   1.00
O88    O     0.61627   0.68611   0.28514   0.00000  Uiso   1.00
C133   C     0.40455   1.00716   0.53284   0.00000  Uiso   1.00
C134   C     0.46991   0.97000   0.54517   0.00000  Uiso   1.00
C135   C     0.51370   1.00988   0.56715   0.00000  Uiso   1.00
C136   C     0.49391   0.08852   0.57494   0.00000  Uiso   1.00
C137   C     0.42657   0.12477   0.56314   0.00000  Uiso   1.00
C138   C     0.37967   0.08174   0.54255   0.00000  Uiso   1.00
H45    H     0.37084   0.97657   0.51730   0.00000  Uiso   1.00
O89    O     0.49304   0.89966   0.53894   0.00000  Uiso   1.00
O90    O     0.56824   0.96828   0.57852   0.00000  Uiso   1.00
H46    H     0.52680   0.11854   0.59077   0.00000  Uiso   1.00
O91    O     0.39968   0.19346   0.57018   0.00000  Uiso   1.00
O92    O     0.31492   0.11506   0.53495   0.00000  Uiso   1.00
C139   C    -0.00764   0.90295   0.78274   0.00000  Uiso   1.00
C140   C     0.02939  -0.03136   0.79493   0.00000  Uiso   1.00
C141   C    -0.01061   0.01278   0.81682   0.00000  Uiso   1.00
C142   C     0.91081  -0.00697   0.82463   0.00000  Uiso   1.00
C143   C     0.87470   0.92541   0.81300   0.00000  Uiso   1.00
C144   C     0.91775   0.87819   0.79249   0.00000  Uiso   1.00
H47    H     0.02306   0.86895   0.76729   0.00000  Uiso   1.00
O93    O     0.09967  -0.00813   0.78866   0.00000  Uiso   1.00
O94    O     0.03081   0.06758   0.82810   0.00000  Uiso   1.00
H48    H     0.88068   0.02623   0.84038   0.00000  Uiso   1.00
O95    O     0.80610   0.89858   0.82013   0.00000  Uiso   1.00
O96    O     0.88440   0.81333   0.78500   0.00000  Uiso   1.00
loop_
_geom_bond_atom_site_label_1
_geom_bond_atom_site_label_2
_geom_bond_distance
_geom_bond_site_symmetry_2
_ccdc_geom_bond_type
Fe1    O1      1.883   .     S
Fe1    O2      1.881   .     S
Fe1    O35     1.886   .     S
Fe1    O36     1.886   .     S
Fe1    O67     1.879   .     S
Fe1    O68     1.894   .     S
Fe2    O5      1.883   .     S
Fe2    O6      1.880   .     S
Fe2    O37     1.886   .     S
Fe2    O38     1.886   .     S
Fe2    O69     1.880   .     S
Fe2    O70     1.893   .     S
Fe3    O11     1.879   .     S
Fe3    O12     1.882   .     S
Fe3    O41     1.885   .     S
Fe3    O42     1.885   .     S
Fe3    O73     1.892   .     S
Fe3    O74     1.879   .     S
Fe4    O15     1.880   .     S
Fe4    O16     1.882   .     S
Fe4    O47     1.886   .     S
Fe4    O48     1.885   .     S
Fe4    O77     1.879   .     S
Fe4    O78     1.892   .     S
Fe5    O19     1.883   .     S
Fe5    O20     1.880   .     S
Fe5    O33     1.886   .     S
Fe5    O34     1.886   .     S
Fe5    O81     1.880   .     S
Fe5    O82     1.893   .     S
Fe6    O23     1.881   .     S
Fe6    O24     1.883   .     S
Fe6    O39     1.886   .     S
Fe6    O40     1.886   .     S
Fe6    O87     1.894   .     S
Fe6    O88     1.880   .     S
Fe7    O27     1.879   .     S
Fe7    O28     1.882   .     S
Fe7    O43     1.885   .     S
Fe7    O44     1.886   .     S
Fe7    O91     1.892   .     S
Fe7    O92     1.878   .     S
Fe8    O31     1.879   .     S
Fe8    O32     1.883   .     S
Fe8    O45     1.885   .     S
Fe8    O46     1.887   .     S
Fe8    O95     1.891   .     S
Fe8    O96     1.879   .     S
Fe9    O29     1.882   .     S
Fe9    O30     1.881   .     S
Fe9    O51     1.876   .     S
Fe9    O52     1.895   .     S
Fe9    O75     1.880   .     S
Fe9    O76     1.889   .     S
Fe10   O17     1.882   .     S
Fe10   O18     1.881   .     S
Fe10   O55     1.894   .     S
Fe10   O56     1.875   .     S
Fe10   O79     1.890   .     S
Fe10   O80     1.879   .     S
Fe11   O21     1.882   .     S
Fe11   O22     1.883   .     S
Fe11   O59     1.895   .     S
Fe11   O60     1.877   .     S
Fe11   O65     1.892   .     S
Fe11   O66     1.880   .     S
Fe12   O25     1.883   .     S
Fe12   O26     1.882   .     S
Fe12   O63     1.896   .     S
Fe12   O64     1.877   .     S
Fe12   O71     1.891   .     S
Fe12   O72     1.880   .     S
Fe13   O7      1.882   .     S
Fe13   O8      1.881   .     S
Fe13   O49     1.894   .     S
Fe13   O50     1.876   .     S
Fe13   O89     1.879   .     S
Fe13   O90     1.890   .     S
Fe14   O9      1.881   .     S
Fe14   O10     1.881   .     S
Fe14   O53     1.875   .     S
Fe14   O54     1.894   .     S
Fe14   O93     1.880   .     S
Fe14   O94     1.889   .     S
Fe15   O13     1.883   .     S
Fe15   O14     1.882   .     S
Fe15   O57     1.877   .     S
Fe15   O58     1.896   .     S
Fe15   O83     1.891   .     S
Fe15   O84     1.880   .     S
Fe16   O3      1.883   .     S
Fe16   O4      1.883   .     S
Fe16   O61     1.877   .     S
Fe16   O62     1.895   .     S
Fe16   O85     1.880   .     S
Fe16   O86     1.892   .     S
C1     C2      1.393   .     A
C1     C6      1.393   .     A
C1     H1      1.083   .     S
C2     C3      1.475   .     S
C2     O1      1.268   .     A
C3     C4      1.392   .     A
C3     O2      1.265   .     A
C4     C5      1.391   .     A
C4     H2      1.083   .     S
C5     C6      1.474   .     S
C5     O3      1.266   .     A
C6     O4      1.266   .     A
C7     C8      1.392   .     A
C7     C12     1.392   .     A
C7     H3      1.083   .     S
C8     C9      1.475   .     S
C8     O5      1.268   .     A
C9     C10     1.392   .     A
C9     O6      1.264   .     A
C10    C11     1.390   .     A
C10    H4      1.083   .     S
C11    C12     1.474   .     S
C11    O7      1.266   .     A
C12    O8      1.266   .     A
C13    C14     1.392   .     A
C13    C18     1.392   .     A
C13    H5      1.083   .     S
C14    C15     1.474   .     S
C14    O9      1.265   .     A
C15    C16     1.390   .     A
C15    O10     1.265   .     A
C16    C17     1.391   .     A
C16    H6      1.083   .     S
C17    C18     1.475   .     S
C17    O11     1.264   .     A
C18    O12     1.267   .     A
C19    C20     1.393   1_556 A
C19    C24     1.393   .     A
C19    H7      1.083   .     S
C20    C19     1.393   1_554 A
C20    C21     1.474   .     S
C20    O13     1.266   .     A
C21    C22     1.391   .     A
C21    O14     1.266   .     A
C22    C23     1.391   1_554 A
C22    H8      1.083   .     S
C23    C22     1.391   1_556 A
C23    C24     1.475   .     S
C23    O15     1.264   .     A
C24    O16     1.268   .     A
C25    C26     1.391   .     A
C25    C30     1.392   1_556 A
C25    H9      1.083   .     S
C26    C27     1.474   .     S
C26    O17     1.266   .     A
C27    C28     1.392   1_556 A
C27    O18     1.266   .     A
C28    C27     1.392   1_554 A
C28    C29     1.392   .     A
C28    H10     1.083   .     S
C29    C30     1.475   .     S
C29    O19     1.268   .     A
C30    C25     1.392   1_554 A
C30    O20     1.264   .     A
C31    C32     1.393   .     A
C31    C36     1.393   .     A
C31    H11     1.083   .     S
C32    C33     1.474   .     S
C32    O21     1.266   .     A
C33    C34     1.391   .     A
C33    O22     1.266   .     A
C34    C35     1.392   .     A
C34    H12     1.083   .     S
C35    C36     1.475   .     S
C35    O23     1.265   .     A
C36    O24     1.268   .     A
C37    C38     1.393   .     A
C37    C42     1.392   .     A
C37    H13     1.083   .     S
C38    C39     1.475   .     S
C38    O25     1.266   .     A
C39    C40     1.391   .     A
C39    O26     1.266   .     A
C40    C41     1.391   .     A
C40    H14     1.083   .     S
C41    C42     1.475   .     S
C41    O27     1.264   .     A
C42    O28     1.268   .     A
C43    C44     1.393   .     A
C43    C48     1.392   .     A
C43    H15     1.083   .     S
C44    C45     1.475   .     S
C44    O29     1.266   .     A
C45    C46     1.390   .     A
C45    O30     1.266   .     A
C46    C47     1.391   .     A
C46    H16     1.083   .     S
C47    C48     1.475   .     S
C47    O31     1.264   .     A
C48    O32     1.268   .     A
C49    C50     1.393   .     A
C49    C54     1.395   .     A
C49    H17     1.083   .     S
C50    C51     1.474   .     S
C50    O33     1.269   .     A
C51    C52     1.395   .     A
C51    O34     1.265   .     A
C52    C53     1.393   .     A
C52    H18     1.083   .     S
C53    C54     1.474   .     S
C53    O35     1.269   .     A
C54    O36     1.266   .     A
C55    C56     1.395   .     A
C55    C60     1.393   .     A
C55    H19     1.083   .     S
C56    C57     1.474   .     S
C56    O37     1.265   .     A
C57    C58     1.393   .     A
C57    O38     1.269   .     A
C58    C59     1.395   .     A
C58    H20     1.083   .     S
C59    C60     1.474   .     S
C59    O39     1.266   .     A
C60    O40     1.269   .     A
C61    C62     1.394   .     A
C61    C66     1.393   .     A
C61    H21     1.083   .     S
C62    C63     1.474   .     S
C62    O41     1.265   .     A
C63    C64     1.392   .     A
C63    O42     1.268   .     A
C64    C65     1.394   .     A
C64    H22     1.083   .     S
C65    C66     1.474   .     S
C65    O43     1.265   .     A
C66    O44     1.269   .     A
C67    C68     1.394   .     A
C67    C72     1.392   .     A
C67    H23     1.083   .     S
C68    C69     1.474   .     S
C68    O45     1.265   .     A
C69    C70     1.393   .     A
C69    O46     1.269   .     A
C70    C71     1.395   .     A
C70    H24     1.083   .     S
C71    C72     1.474   .     S
C71    O47     1.265   .     A
C72    O48     1.269   .     A
C73    C74     1.400   .     A
C73    C78     1.400   .     A
C73    H25     1.083   .     S
C74    C75     1.475   .     S
C74    O49     1.272   .     A
C75    C76     1.388   .     A
C75    O50     1.263   .     A
C76    C77     1.388   .     A
C76    H26     1.083   .     S
C77    C78     1.475   .     S
C77    O51     1.263   .     A
C78    O52     1.272   .     A
C79    C80     1.387   .     A
C79    C84     1.387   .     A
C79    H27     1.083   .     S
C80    C81     1.475   .     S
C80    O53     1.263   .     A
C81    C82     1.400   .     A
C81    O54     1.272   .     A
C82    C83     1.400   .     A
C82    H28     1.083   .     S
C83    C84     1.475   .     S
C83    O55     1.272   .     A
C84    O56     1.263   .     A
C85    C86     1.388   .     A
C85    C90     1.388   .     A
C85    H29     1.083   .     S
C86    C87     1.474   .     S
C86    O57     1.264   .     A
C87    C88     1.401   .     A
C87    O58     1.273   .     A
C88    C89     1.401   .     A
C88    H30     1.083   .     S
C89    C90     1.474   .     S
C89    O59     1.273   .     A
C90    O60     1.264   .     A
C91    C92     1.388   .     A
C91    C96     1.388   .     A
C91    H31     1.083   .     S
C92    C93     1.474   .     S
C92    O61     1.264   .     A
C93    C94     1.401   .     A
C93    O62     1.273   .     A
C94    C95     1.401   .     A
C94    H32     1.083   .     S
C95    C96     1.474   .     S
C95    O63     1.273   .     A
C96    O64     1.264   .     A
C97    C98     1.399   1_545 A
C97    C102    1.398   1_655 A
C97    H33     1.083   .     S
C98    C97     1.399   1_565 A
C98    C99     1.475   .     S
C98    O65     1.271   .     A
C99    C100    1.390   1_655 A
C99    O66     1.265   .     A
C100   C99     1.390   1_455 A
C100   C101    1.390   1_565 A
C100   H34     1.083   .     S
C101   C100    1.390   1_545 A
C101   C102    1.474   .     S
C101   O67     1.265   .     A
C102   C97     1.398   1_455 A
C102   O68     1.271   .     A
C103   C104    1.390   1_455 A
C103   C108    1.390   .     A
C103   H35     1.083   .     S
C104   C103    1.390   1_655 A
C104   C105    1.474   .     S
C104   O69     1.264   .     A
C105   C106    1.397   .     A
C105   O70     1.271   .     A
C106   C107    1.398   1_655 A
C106   H36     1.083   .     S
C107   C106    1.398   1_455 A
C107   C108    1.474   .     S
C107   O71     1.271   .     A
C108   O72     1.265   .     A
C109   C110    1.396   .     A
C109   C114    1.397   .     A
C109   H37     1.083   .     S
C110   C111    1.474   .     S
C110   O73     1.271   .     A
C111   C112    1.390   .     A
C111   O74     1.264   .     A
C112   C113    1.390   .     A
C112   H38     1.083   .     S
C113   C114    1.475   .     S
C113   O75     1.265   .     A
C114   O76     1.270   .     A
C115   C116    1.390   .     A
C115   C120    1.390   1_565 A
C115   H39     1.083   .     S
C116   C117    1.474   .     S
C116   O77     1.264   .     A
C117   C118    1.397   1_565 A
C117   O78     1.271   .     A
C118   C117    1.397   1_545 A
C118   C119    1.397   .     A
C118   H40     1.083   .     S
C119   C120    1.474   .     S
C119   O79     1.270   .     A
C120   C115    1.390   1_545 A
C120   O80     1.265   .     A
C121   C122    1.390   .     A
C121   C126    1.390   1_455 A
C121   H41     1.083   .     S
C122   C123    1.474   .     S
C122   O81     1.265   .     A
C123   C124    1.397   1_455 A
C123   O82     1.271   .     A
C124   C123    1.397   1_655 A
C124   C125    1.398   .     A
C124   H42     1.083   .     S
C125   C126    1.474   .     S
C125   O83     1.271   .     A
C126   C121    1.390   1_655 A
C126   O84     1.265   .     A
C127   C128    1.390   .     A
C127   C132    1.390   .     A
C127   H43     1.083   .     S
C128   C129    1.474   .     S
C128   O85     1.265   .     A
C129   C130    1.399   .     A
C129   O86     1.271   .     A
C130   C131    1.398   .     A
C130   H44     1.083   .     S
C131   C132    1.474   .     S
C131   O87     1.271   .     A
C132   O88     1.265   .     A
C133   C134    1.389   .     A
C133   C138    1.389   1_565 A
C133   H45     1.083   .     S
C134   C135    1.475   .     S
C134   O89     1.265   .     A
C135   C136    1.398   1_565 A
C135   O90     1.270   .     A
C136   C135    1.398   1_545 A
C136   C137    1.397   .     A
C136   H46     1.083   .     S
C137   C138    1.474   .     S
C137   O91     1.271   .     A
C138   C133    1.389   1_545 A
C138   O92     1.264   .     A
C139   C140    1.390   1_565 A
C139   C144    1.390   1_455 A
C139   H47     1.083   .     S
C140   C139    1.390   1_545 A
C140   C141    1.475   .     S
C140   O93     1.265   .     A
C141   C142    1.397   1_455 A
C141   O94     1.270   .     A
C142   C141    1.397   1_655 A
C142   C143    1.396   1_545 A
C142   H48     1.083   .     S
C143   C142    1.396   1_565 A
C143   C144    1.475   .     S
C143   O95     1.270   .     A
C144   C139    1.390   1_655 A
C144   O96     1.264   .     A
