data_image0
_chemical_formula_structural       C7NCNCNC3NCNC11NCNC7NHO2H2O2H2O2H2O2HNiC7NCNCNC3NCNC11NCNC7NHO2H2O2H2O2H2O2HNiC7NCNCNC3NCNC11NCNC7NHO2H2O2H2O2H2O2HNiC7NCNCNC3NCNC11NCNC7NHO2H2O2H2O2H2O2HNiCu6Zn2
_chemical_formula_sum              "C128 N32 H32 O32 Ni4 Cu6 Zn2"
_cell_length_a       19.2397
_cell_length_b       19.2397
_cell_length_c       76.9597
_cell_angle_alpha    90.0044
_cell_angle_beta     90.0044
_cell_angle_gamma    90

_space_group_name_H-M_alt    "P 1"
_space_group_IT_number       1

loop_
  _space_group_symop_operation_xyz
  'x, y, z'

loop_
  _atom_site_type_symbol
  _atom_site_label
  _atom_site_symmetry_multiplicity
  _atom_site_fract_x
  _atom_site_fract_y
  _atom_site_fract_z
  _atom_site_occupancy
  C   C1        1.0  0.99990  0.91902  0.19980  1.0000
  C   C2        1.0  0.99990  0.95965  0.21717  1.0000
  C   C3        1.0  0.99990  0.04053  0.21717  1.0000
  C   C4        1.0  0.99990  0.08117  0.19981  1.0000
  C   C5        1.0  0.99990  0.03878  0.18296  1.0000
  C   C6        1.0  0.99990  0.96143  0.18296  1.0000
  C   C7        1.0  0.99990  0.93727  0.16403  1.0000
  N   N1        1.0  0.99990  0.00010  0.15179  1.0000
  C   C8        1.0  0.99990  0.06296  0.16404  1.0000
  N   N2        1.0  0.00010  0.13709  0.15926  1.0000
  C   C9        1.0  0.00010  0.15622  0.14073  1.0000
  N   N3        1.0  0.99990  0.10724  0.12501  1.0000
  C   C10       1.0  0.99990  0.15621  0.10930  1.0000
  C   C11       1.0  0.00010  0.23191  0.11534  1.0000
  C   C12       1.0  0.00010  0.23194  0.13468  1.0000
  N   N4        1.0  0.99990  0.00010  0.09823  1.0000
  C   C13       1.0  0.99990  0.06296  0.08599  1.0000
  N   N5        1.0  0.99990  0.13708  0.09077  1.0000
  C   C14       1.0  0.99990  0.03878  0.06706  1.0000
  C   C15       1.0  0.00010  0.96143  0.06706  1.0000
  C   C16       1.0  0.00010  0.93727  0.08599  1.0000
  C   C17       1.0  0.00010  0.29933  0.14527  1.0000
  C   C18       1.0  0.00010  0.36876  0.13510  1.0000
  C   C19       1.0  0.00010  0.36872  0.11489  1.0000
  C   C20       1.0  0.00010  0.29926  0.10474  1.0000
  C   C21       1.0  0.00010  0.91903  0.05022  1.0000
  C   C22       1.0  0.99990  0.95965  0.03286  1.0000
  C   C23       1.0  0.99990  0.04052  0.03286  1.0000
  C   C24       1.0  0.99990  0.08117  0.05022  1.0000
  N   N6        1.0  0.99990  0.89300  0.12501  1.0000
  C   C25       1.0  0.00010  0.84403  0.10930  1.0000
  N   N7        1.0  0.00010  0.86315  0.09077  1.0000
  C   C26       1.0  0.00010  0.76832  0.11534  1.0000
  C   C27       1.0  0.99990  0.76831  0.13467  1.0000
  C   C28       1.0  0.99990  0.84402  0.14072  1.0000
  C   C29       1.0  0.99990  0.70093  0.14527  1.0000
  C   C30       1.0  0.00010  0.63149  0.13510  1.0000
  C   C31       1.0  0.00010  0.63152  0.11488  1.0000
  C   C32       1.0  0.00010  0.70098  0.10473  1.0000
  N   N8        1.0  0.99990  0.86315  0.15925  1.0000
  H   H1        1.0  0.99990  0.86446  0.19958  1.0000
  O   O1        1.0  0.99990  0.92603  0.23182  1.0000
  O   O2        1.0  0.99990  0.07413  0.23183  1.0000
  H   H2        1.0  0.00010  0.13574  0.19959  1.0000
  H   H3        1.0  0.00010  0.29847  0.15891  1.0000
  O   O3        1.0  0.00010  0.42739  0.14350  1.0000
  O   O4        1.0  0.00010  0.42732  0.10648  1.0000
  H   H4        1.0  0.00010  0.29834  0.09109  1.0000
  H   H5        1.0  0.00010  0.86446  0.05044  1.0000
  O   O5        1.0  0.99990  0.92603  0.01821  1.0000
  O   O6        1.0  0.99990  0.07413  0.01820  1.0000
  H   H6        1.0  0.99990  0.13573  0.05044  1.0000
  H   H7        1.0  0.99990  0.70180  0.15891  1.0000
  O   O7        1.0  0.00010  0.57287  0.14350  1.0000
  O   O8        1.0  0.00010  0.57291  0.10647  1.0000
  H   H8        1.0  0.00010  0.70189  0.09109  1.0000
  Ni  Ni1       1.0  0.99990  0.00010  0.12501  1.0000
  C   C33       1.0  0.91902  0.00010  0.69980  1.0000
  C   C34       1.0  0.95965  0.00010  0.71717  1.0000
  C   C35       1.0  0.04053  0.00010  0.71717  1.0000
  C   C36       1.0  0.08117  0.00010  0.69981  1.0000
  C   C37       1.0  0.03878  0.00010  0.68296  1.0000
  C   C38       1.0  0.96143  0.00010  0.68296  1.0000
  C   C39       1.0  0.93727  0.00010  0.66403  1.0000
  N   N9        1.0  0.00010  0.00010  0.65179  1.0000
  C   C40       1.0  0.06296  0.00010  0.66404  1.0000
  N   N10       1.0  0.13709  0.99990  0.65926  1.0000
  C   C41       1.0  0.15622  0.99990  0.64073  1.0000
  N   N11       1.0  0.10724  0.00010  0.62501  1.0000
  C   C42       1.0  0.15621  0.00010  0.60930  1.0000
  C   C43       1.0  0.23191  0.00010  0.61534  1.0000
  C   C44       1.0  0.23194  0.99990  0.63468  1.0000
  N   N12       1.0  0.00010  0.00010  0.59823  1.0000
  C   C45       1.0  0.06296  0.00010  0.58599  1.0000
  N   N13       1.0  0.13708  0.00010  0.59077  1.0000
  C   C46       1.0  0.03878  0.00010  0.56706  1.0000
  C   C47       1.0  0.96143  0.00010  0.56706  1.0000
  C   C48       1.0  0.93727  0.00010  0.58599  1.0000
  C   C49       1.0  0.29933  0.99990  0.64527  1.0000
  C   C50       1.0  0.36876  0.99990  0.63510  1.0000
  C   C51       1.0  0.36872  0.99990  0.61489  1.0000
  C   C52       1.0  0.29926  0.00010  0.60474  1.0000
  C   C53       1.0  0.91903  0.00010  0.55022  1.0000
  C   C54       1.0  0.95965  0.00010  0.53286  1.0000
  C   C55       1.0  0.04052  0.00010  0.53286  1.0000
  C   C56       1.0  0.08117  0.00010  0.55022  1.0000
  N   N14       1.0  0.89300  0.00010  0.62501  1.0000
  C   C57       1.0  0.84403  0.99990  0.60930  1.0000
  N   N15       1.0  0.86315  0.99990  0.59077  1.0000
  C   C58       1.0  0.76832  0.99990  0.61534  1.0000
  C   C59       1.0  0.76831  0.00010  0.63467  1.0000
  C   C60       1.0  0.84402  0.00010  0.64072  1.0000
  C   C61       1.0  0.70093  0.00010  0.64527  1.0000
  C   C62       1.0  0.63149  0.00010  0.63510  1.0000
  C   C63       1.0  0.63152  0.99990  0.61488  1.0000
  C   C64       1.0  0.70098  0.99990  0.60473  1.0000
  N   N16       1.0  0.86315  0.00010  0.65925  1.0000
  H   H9        1.0  0.86446  0.00010  0.69958  1.0000
  O   O9        1.0  0.92603  0.00010  0.73182  1.0000
  O   O10       1.0  0.07413  0.00010  0.73183  1.0000
  H   H10       1.0  0.13574  0.00010  0.69959  1.0000
  H   H11       1.0  0.29847  0.99990  0.65891  1.0000
  O   O11       1.0  0.42739  0.99990  0.64350  1.0000
  O   O12       1.0  0.42732  0.99990  0.60648  1.0000
  H   H12       1.0  0.29834  0.00010  0.59109  1.0000
  H   H13       1.0  0.86446  0.99990  0.55044  1.0000
  O   O13       1.0  0.92603  0.00010  0.51821  1.0000
  O   O14       1.0  0.07413  0.00010  0.51820  1.0000
  H   H14       1.0  0.13573  0.00010  0.55044  1.0000
  H   H15       1.0  0.70180  0.00010  0.65891  1.0000
  O   O15       1.0  0.57287  0.99990  0.64350  1.0000
  O   O16       1.0  0.57291  0.99990  0.60647  1.0000
  H   H16       1.0  0.70189  0.99990  0.59109  1.0000
  Ni  Ni2       1.0  0.00010  0.00010  0.62501  1.0000
  C   C65       1.0  0.99990  0.91903  0.94980  1.0000
  C   C66       1.0  0.99990  0.95966  0.96717  1.0000
  C   C67       1.0  0.99990  0.04054  0.96717  1.0000
  C   C68       1.0  0.99990  0.08118  0.94981  1.0000
  C   C69       1.0  0.99990  0.03879  0.93296  1.0000
  C   C70       1.0  0.99990  0.96144  0.93296  1.0000
  C   C71       1.0  0.99990  0.93727  0.91404  1.0000
  N   N17       1.0  0.99990  0.00010  0.90179  1.0000
  C   C72       1.0  0.99990  0.06297  0.91404  1.0000
  N   N18       1.0  0.00010  0.13709  0.90926  1.0000
  C   C73       1.0  0.00010  0.15623  0.89072  1.0000
  N   N19       1.0  0.99990  0.10724  0.87501  1.0000
  C   C74       1.0  0.99990  0.15620  0.85930  1.0000
  C   C75       1.0  0.00010  0.23191  0.86534  1.0000
  C   C76       1.0  0.00010  0.23194  0.88468  1.0000
  N   N20       1.0  0.99990  0.00010  0.84823  1.0000
  C   C77       1.0  0.99990  0.06295  0.83599  1.0000
  N   N21       1.0  0.99990  0.13708  0.84077  1.0000
  C   C78       1.0  0.99990  0.03877  0.81706  1.0000
  C   C79       1.0  0.00010  0.96143  0.81706  1.0000
  C   C80       1.0  0.00010  0.93726  0.83599  1.0000
  C   C81       1.0  0.00010  0.29933  0.89527  1.0000
  C   C82       1.0  0.00010  0.36876  0.88510  1.0000
  C   C83       1.0  0.00010  0.36872  0.86488  1.0000
  C   C84       1.0  0.00010  0.29925  0.85473  1.0000
  C   C85       1.0  0.00010  0.91902  0.80022  1.0000
  C   C86       1.0  0.99990  0.95964  0.78286  1.0000
  C   C87       1.0  0.99990  0.04051  0.78286  1.0000
  C   C88       1.0  0.99990  0.08116  0.80022  1.0000
  N   N22       1.0  0.99990  0.89300  0.87501  1.0000
  C   C89       1.0  0.00010  0.84403  0.85930  1.0000
  N   N23       1.0  0.00010  0.86315  0.84077  1.0000
  C   C90       1.0  0.00010  0.76832  0.86534  1.0000
  C   C91       1.0  0.99990  0.76831  0.88467  1.0000
  C   C92       1.0  0.99990  0.84402  0.89072  1.0000
  C   C93       1.0  0.99990  0.70093  0.89527  1.0000
  C   C94       1.0  0.00010  0.63149  0.88510  1.0000
  C   C95       1.0  0.00010  0.63151  0.86488  1.0000
  C   C96       1.0  0.00010  0.70098  0.85473  1.0000
  N   N24       1.0  0.99990  0.86315  0.90925  1.0000
  H   H17       1.0  0.99990  0.86447  0.94958  1.0000
  O   O17       1.0  0.99990  0.92604  0.98182  1.0000
  O   O18       1.0  0.99990  0.07414  0.98183  1.0000
  H   H18       1.0  0.00010  0.13575  0.94958  1.0000
  H   H19       1.0  0.00010  0.29847  0.90891  1.0000
  O   O19       1.0  0.00010  0.42739  0.89350  1.0000
  O   O20       1.0  0.00010  0.42732  0.85647  1.0000
  H   H20       1.0  0.00010  0.29834  0.84109  1.0000
  H   H21       1.0  0.00010  0.86446  0.80044  1.0000
  O   O21       1.0  0.99990  0.92602  0.76821  1.0000
  O   O22       1.0  0.99990  0.07412  0.76820  1.0000
  H   H22       1.0  0.99990  0.13572  0.80044  1.0000
  H   H23       1.0  0.99990  0.70181  0.90891  1.0000
  O   O23       1.0  0.00010  0.57287  0.89350  1.0000
  O   O24       1.0  0.00010  0.57291  0.85647  1.0000
  H   H24       1.0  0.00010  0.70189  0.84109  1.0000
  Ni  Ni3       1.0  0.99990  0.00010  0.87501  1.0000
  C   C97       1.0  0.91903  0.00010  0.44980  1.0000
  C   C98       1.0  0.95966  0.00010  0.46717  1.0000
  C   C99       1.0  0.04054  0.00010  0.46717  1.0000
  C   C100      1.0  0.08118  0.00010  0.44981  1.0000
  C   C101      1.0  0.03879  0.00010  0.43296  1.0000
  C   C102      1.0  0.96144  0.00010  0.43296  1.0000
  C   C103      1.0  0.93727  0.00010  0.41404  1.0000
  N   N25       1.0  0.00010  0.00010  0.40179  1.0000
  C   C104      1.0  0.06297  0.00010  0.41404  1.0000
  N   N26       1.0  0.13709  0.99990  0.40926  1.0000
  C   C105      1.0  0.15623  0.99990  0.39072  1.0000
  N   N27       1.0  0.10724  0.00010  0.37501  1.0000
  C   C106      1.0  0.15620  0.00010  0.35930  1.0000
  C   C107      1.0  0.23191  0.00010  0.36534  1.0000
  C   C108      1.0  0.23194  0.99990  0.38468  1.0000
  N   N28       1.0  0.00010  0.00010  0.34823  1.0000
  C   C109      1.0  0.06295  0.00010  0.33599  1.0000
  N   N29       1.0  0.13708  0.00010  0.34077  1.0000
  C   C110      1.0  0.03877  0.00010  0.31706  1.0000
  C   C111      1.0  0.96143  0.00010  0.31706  1.0000
  C   C112      1.0  0.93726  0.00010  0.33599  1.0000
  C   C113      1.0  0.29933  0.99990  0.39527  1.0000
  C   C114      1.0  0.36876  0.99990  0.38510  1.0000
  C   C115      1.0  0.36872  0.99990  0.36488  1.0000
  C   C116      1.0  0.29925  0.00010  0.35473  1.0000
  C   C117      1.0  0.91902  0.00010  0.30022  1.0000
  C   C118      1.0  0.95964  0.00010  0.28286  1.0000
  C   C119      1.0  0.04051  0.00010  0.28286  1.0000
  C   C120      1.0  0.08116  0.00010  0.30022  1.0000
  N   N30       1.0  0.89300  0.00010  0.37501  1.0000
  C   C121      1.0  0.84403  0.99990  0.35930  1.0000
  N   N31       1.0  0.86315  0.99990  0.34077  1.0000
  C   C122      1.0  0.76832  0.99990  0.36534  1.0000
  C   C123      1.0  0.76831  0.00010  0.38467  1.0000
  C   C124      1.0  0.84402  0.00010  0.39072  1.0000
  C   C125      1.0  0.70093  0.00010  0.39527  1.0000
  C   C126      1.0  0.63149  0.00010  0.38510  1.0000
  C   C127      1.0  0.63151  0.99990  0.36488  1.0000
  C   C128      1.0  0.70098  0.99990  0.35473  1.0000
  N   N32       1.0  0.86315  0.00010  0.40925  1.0000
  H   H25       1.0  0.86447  0.00010  0.44958  1.0000
  O   O25       1.0  0.92604  0.00010  0.48182  1.0000
  O   O26       1.0  0.07414  0.00010  0.48183  1.0000
  H   H26       1.0  0.13575  0.00010  0.44959  1.0000
  H   H27       1.0  0.29847  0.99990  0.40891  1.0000
  O   O27       1.0  0.42739  0.99990  0.39350  1.0000
  O   O28       1.0  0.42732  0.99990  0.35647  1.0000
  H   H28       1.0  0.29834  0.00010  0.34109  1.0000
  H   H29       1.0  0.86446  0.99990  0.30044  1.0000
  O   O29       1.0  0.92602  0.00010  0.26821  1.0000
  O   O30       1.0  0.07412  0.00010  0.26820  1.0000
  H   H30       1.0  0.13572  0.00010  0.30044  1.0000
  H   H31       1.0  0.70181  0.00010  0.40891  1.0000
  O   O31       1.0  0.57287  0.99990  0.39350  1.0000
  O   O32       1.0  0.57291  0.99990  0.35647  1.0000
  H   H32       1.0  0.70189  0.99990  0.34109  1.0000
  Ni  Ni4       1.0  0.00010  0.00010  0.37501  1.0000
  Cu  Cu1       1.0  0.00010  0.50012  0.12499  1.0000
  Cu  Cu2       1.0  0.50012  0.99990  0.62499  1.0000
  Cu  Cu3       1.0  0.00010  0.50012  0.87499  1.0000
  Cu  Cu4       1.0  0.50012  0.99990  0.37499  1.0000
  Cu  Cu5       1.0  0.99990  0.00010  0.00010  1.0000
  Cu  Cu6       1.0  0.00010  0.00010  0.50001  1.0000
  Zn  Zn1       1.0  0.99990  0.00010  0.25001  1.0000
  Zn  Zn2       1.0  0.99990  0.00010  0.75001  1.0000
