data_image0
_chemical_formula_structural       C7NCNCNC3NCNC11NCNC7NH8C16HO2H2O2H2O2H2O2HNiC7NCNCNC3NCNC11NCNC7NH8C16HO2H2O2H2O2H2O2HNiC7NCNCNC3NCNC11NCNC7NH8C16HO2H2O2H2O2H2O2HNiC7NCNCNC3NCNC11NCNC7NH8C16HO2H2O2H2O2H2O2HNiCu6Zn2
_chemical_formula_sum              "C192 N32 H64 O32 Ni4 Cu6 Zn2"
_cell_length_a       25.0719
_cell_length_b       25.074
_cell_length_c       100.288
_cell_angle_alpha    90.2269
_cell_angle_beta     90.2266
_cell_angle_gamma    89.9981

_space_group_name_H-M_alt    "P 1"
_space_group_IT_number       1

loop_
  _space_group_symop_operation_xyz
  'x, y, z'

loop_
  _atom_site_type_symbol
  _atom_site_label
  _atom_site_symmetry_multiplicity
  _atom_site_fract_x
  _atom_site_fract_y
  _atom_site_fract_z
  _atom_site_occupancy
  C   C1        1.0  0.00449  0.76972  0.10941  1.0000
  C   C2        1.0  0.00451  0.71657  0.11722  1.0000
  C   C3        1.0  0.00456  0.71664  0.13268  1.0000
  C   C4        1.0  0.00459  0.76982  0.14047  1.0000
  C   C5        1.0  0.00456  0.82148  0.13239  1.0000
  C   C6        1.0  0.00451  0.82144  0.11748  1.0000
  C   C7        1.0  0.00450  0.87952  0.11280  1.0000
  N   N1        1.0  0.00454  0.91614  0.12496  1.0000
  C   C8        1.0  0.00458  0.87961  0.13710  1.0000
  N   N2        1.0  0.00463  0.89663  0.15154  1.0000
  C   C9        1.0  0.00464  0.95430  0.15579  1.0000
  N   N3        1.0  0.00461  0.00288  0.14667  1.0000
  C   C10       1.0  0.00464  0.05144  0.15581  1.0000
  C   C11       1.0  0.00469  0.03265  0.17033  1.0000
  C   C12       1.0  0.00469  0.97308  0.17033  1.0000
  N   N4        1.0  0.00454  0.08939  0.12506  1.0000
  C   C13       1.0  0.00458  0.12591  0.13720  1.0000
  N   N5        1.0  0.00463  0.10903  0.15159  1.0000
  C   C14       1.0  0.00456  0.18402  0.13252  1.0000
  C   C15       1.0  0.00451  0.18402  0.11762  1.0000
  C   C16       1.0  0.00450  0.12593  0.11292  1.0000
  C   C17       1.0  0.00473  0.94075  0.18324  1.0000
  C   C18       1.0  0.00478  0.97176  0.19653  1.0000
  C   C19       1.0  0.00478  0.03354  0.19654  1.0000
  C   C20       1.0  0.00473  0.06481  0.18326  1.0000
  C   C21       1.0  0.00449  0.23571  0.10955  1.0000
  C   C22       1.0  0.00451  0.28887  0.11732  1.0000
  C   C23       1.0  0.00456  0.28883  0.13277  1.0000
  C   C24       1.0  0.00459  0.23569  0.14057  1.0000
  N   N6        1.0  0.00447  0.00263  0.10335  1.0000
  C   C25       1.0  0.00444  0.05120  0.09423  1.0000
  N   N7        1.0  0.00445  0.10892  0.09850  1.0000
  C   C26       1.0  0.00439  0.03245  0.07969  1.0000
  C   C27       1.0  0.00439  0.97283  0.07968  1.0000
  C   C28       1.0  0.00444  0.95404  0.09419  1.0000
  C   C29       1.0  0.00434  0.94064  0.06674  1.0000
  C   C30       1.0  0.00430  0.97189  0.05345  1.0000
  C   C31       1.0  0.00430  0.03372  0.05347  1.0000
  C   C32       1.0  0.00434  0.06480  0.06678  1.0000
  N   N8        1.0  0.00445  0.89637  0.09840  1.0000
  H   H1        1.0  0.00445  0.77032  0.09810  1.0000
  H   H2        1.0  0.00463  0.77049  0.15180  1.0000
  H   H3        1.0  0.00473  0.89548  0.18308  1.0000
  H   H4        1.0  0.00473  0.11007  0.18311  1.0000
  H   H5        1.0  0.00445  0.23509  0.09824  1.0000
  H   H6        1.0  0.00463  0.23503  0.15188  1.0000
  H   H7        1.0  0.00434  0.89536  0.06688  1.0000
  H   H8        1.0  0.00434  0.11010  0.06696  1.0000
  C   C33       1.0  0.00425  0.94160  0.04015  1.0000
  C   C34       1.0  0.00421  0.97243  0.02689  1.0000
  C   C35       1.0  0.00421  0.03358  0.02691  1.0000
  C   C36       1.0  0.00425  0.06420  0.04019  1.0000
  C   C37       1.0  0.00449  0.66331  0.10963  1.0000
  C   C38       1.0  0.00451  0.61026  0.11733  1.0000
  C   C39       1.0  0.00456  0.61031  0.13261  1.0000
  C   C40       1.0  0.00459  0.66340  0.14028  1.0000
  C   C41       1.0  0.00482  0.94128  0.20983  1.0000
  C   C42       1.0  0.00487  0.97190  0.22309  1.0000
  C   C43       1.0  0.00487  0.03302  0.22309  1.0000
  C   C44       1.0  0.00482  0.06381  0.20984  1.0000
  C   C45       1.0  0.00449  0.34209  0.10971  1.0000
  C   C46       1.0  0.00451  0.39507  0.11736  1.0000
  C   C47       1.0  0.00456  0.39506  0.13263  1.0000
  C   C48       1.0  0.00459  0.34202  0.14032  1.0000
  H   H9        1.0  0.00425  0.89633  0.04010  1.0000
  O   O1        1.0  0.00417  0.94280  0.01394  1.0000
  O   O2        1.0  0.00417  0.06342  0.01398  1.0000
  H   H10       1.0  0.00425  0.10952  0.04017  1.0000
  H   H11       1.0  0.00445  0.66318  0.09831  1.0000
  O   O3        1.0  0.00449  0.55847  0.10991  1.0000
  O   O4        1.0  0.00459  0.55854  0.14007  1.0000
  H   H12       1.0  0.00463  0.66327  0.15160  1.0000
  H   H13       1.0  0.00482  0.89604  0.20986  1.0000
  O   O5        1.0  0.00491  0.94209  0.23603  1.0000
  O   O6        1.0  0.00491  0.06258  0.23603  1.0000
  H   H14       1.0  0.00482  0.10905  0.20987  1.0000
  H   H15       1.0  0.00445  0.34223  0.09841  1.0000
  O   O7        1.0  0.00449  0.44685  0.10993  1.0000
  O   O8        1.0  0.00459  0.44678  0.14004  1.0000
  H   H16       1.0  0.00463  0.34212  0.15164  1.0000
  Ni  Ni1       1.0  0.00454  0.00275  0.12501  1.0000
  C   C49       1.0  0.06481  0.00474  0.68328  1.0000
  C   C50       1.0  0.03355  0.00479  0.69656  1.0000
  C   C51       1.0  0.97170  0.00479  0.69653  1.0000
  C   C52       1.0  0.94058  0.00474  0.68322  1.0000
  C   C53       1.0  0.97295  0.00470  0.67031  1.0000
  C   C54       1.0  0.03258  0.00470  0.67034  1.0000
  C   C55       1.0  0.05135  0.00465  0.65582  1.0000
  N   N9        1.0  0.00275  0.00462  0.64665  1.0000
  C   C56       1.0  0.95417  0.00465  0.65578  1.0000
  N   N10       1.0  0.89641  0.00464  0.65151  1.0000
  C   C57       1.0  0.87944  0.00459  0.63709  1.0000
  N   N11       1.0  0.91599  0.00455  0.62495  1.0000
  C   C58       1.0  0.87945  0.00451  0.61280  1.0000
  C   C59       1.0  0.82137  0.00453  0.61749  1.0000
  C   C60       1.0  0.82131  0.00458  0.63238  1.0000
  N   N12       1.0  0.00248  0.00448  0.60334  1.0000
  C   C61       1.0  0.95395  0.00445  0.59420  1.0000
  N   N13       1.0  0.89637  0.00446  0.59840  1.0000
  C   C62       1.0  0.97274  0.00440  0.57967  1.0000
  C   C63       1.0  0.03232  0.00440  0.57968  1.0000
  C   C64       1.0  0.05106  0.00445  0.59421  1.0000
  C   C65       1.0  0.76963  0.00460  0.64045  1.0000
  C   C66       1.0  0.71651  0.00458  0.63269  1.0000
  C   C67       1.0  0.71652  0.00453  0.61724  1.0000
  C   C68       1.0  0.76967  0.00450  0.60943  1.0000
  C   C69       1.0  0.06466  0.00436  0.56677  1.0000
  C   C70       1.0  0.03362  0.00432  0.55347  1.0000
  C   C71       1.0  0.97184  0.00432  0.55347  1.0000
  C   C72       1.0  0.94058  0.00436  0.56675  1.0000
  N   N14       1.0  0.08928  0.00455  0.62505  1.0000
  C   C73       1.0  0.12577  0.00451  0.61291  1.0000
  N   N15       1.0  0.10873  0.00446  0.59848  1.0000
  C   C74       1.0  0.18392  0.00453  0.61761  1.0000
  C   C75       1.0  0.18392  0.00458  0.63252  1.0000
  C   C76       1.0  0.12584  0.00459  0.63720  1.0000
  C   C77       1.0  0.23566  0.00460  0.64058  1.0000
  C   C78       1.0  0.28883  0.00458  0.63277  1.0000
  C   C79       1.0  0.28879  0.00453  0.61732  1.0000
  C   C80       1.0  0.23558  0.00450  0.60953  1.0000
  N   N16       1.0  0.10897  0.00464  0.65162  1.0000
  H   H17       1.0  0.11008  0.00474  0.68313  1.0000
  H   H18       1.0  0.89527  0.00474  0.68305  1.0000
  H   H19       1.0  0.77026  0.00464  0.65177  1.0000
  H   H20       1.0  0.77031  0.00446  0.59812  1.0000
  H   H21       1.0  0.10990  0.00436  0.56693  1.0000
  H   H22       1.0  0.89531  0.00436  0.56690  1.0000
  H   H23       1.0  0.23505  0.00464  0.65190  1.0000
  H   H24       1.0  0.23491  0.00446  0.59821  1.0000
  C   C81       1.0  0.34203  0.00460  0.64036  1.0000
  C   C82       1.0  0.39507  0.00458  0.63266  1.0000
  C   C83       1.0  0.39504  0.00453  0.61737  1.0000
  C   C84       1.0  0.34196  0.00450  0.60971  1.0000
  C   C85       1.0  0.06384  0.00483  0.70988  1.0000
  C   C86       1.0  0.03302  0.00487  0.72314  1.0000
  C   C87       1.0  0.97188  0.00487  0.72311  1.0000
  C   C88       1.0  0.94125  0.00483  0.70983  1.0000
  C   C89       1.0  0.66328  0.00460  0.64030  1.0000
  C   C90       1.0  0.61026  0.00458  0.63263  1.0000
  C   C91       1.0  0.61031  0.00453  0.61735  1.0000
  C   C92       1.0  0.66336  0.00450  0.60966  1.0000
  C   C93       1.0  0.06411  0.00427  0.54017  1.0000
  C   C94       1.0  0.03354  0.00423  0.52692  1.0000
  C   C95       1.0  0.97246  0.00423  0.52691  1.0000
  C   C96       1.0  0.94164  0.00427  0.54016  1.0000
  H   H25       1.0  0.34215  0.00464  0.65168  1.0000
  O   O9        1.0  0.44684  0.00460  0.64008  1.0000
  O   O10       1.0  0.44679  0.00450  0.60992  1.0000
  H   H26       1.0  0.34208  0.00446  0.59838  1.0000
  H   H27       1.0  0.10912  0.00483  0.70992  1.0000
  O   O11       1.0  0.06265  0.00492  0.73609  1.0000
  O   O12       1.0  0.94201  0.00492  0.73605  1.0000
  H   H28       1.0  0.89596  0.00483  0.70985  1.0000
  H   H29       1.0  0.66312  0.00464  0.65161  1.0000
  O   O13       1.0  0.55847  0.00460  0.64007  1.0000
  O   O14       1.0  0.55858  0.00450  0.60995  1.0000
  H   H30       1.0  0.66327  0.00446  0.59835  1.0000
  H   H31       1.0  0.10931  0.00427  0.54014  1.0000
  O   O15       1.0  0.06332  0.00419  0.51398  1.0000
  O   O16       1.0  0.94287  0.00419  0.51397  1.0000
  H   H32       1.0  0.89639  0.00427  0.54013  1.0000
  Ni  Ni2       1.0  0.00262  0.00455  0.62500  1.0000
  C   C97       1.0  0.00185  0.77060  0.85942  1.0000
  C   C98       1.0  0.00188  0.71746  0.86723  1.0000
  C   C99       1.0  0.00194  0.71752  0.88269  1.0000
  C   C100      1.0  0.00196  0.77070  0.89048  1.0000
  C   C101      1.0  0.00193  0.82236  0.88240  1.0000
  C   C102      1.0  0.00188  0.82232  0.86749  1.0000
  C   C103      1.0  0.00186  0.88040  0.86281  1.0000
  N   N17       1.0  0.00191  0.91702  0.87497  1.0000
  C   C104      1.0  0.00195  0.88048  0.88711  1.0000
  N   N18       1.0  0.00201  0.89751  0.90155  1.0000
  C   C105      1.0  0.00202  0.95518  0.90581  1.0000
  N   N19       1.0  0.00199  0.00375  0.89668  1.0000
  C   C106      1.0  0.00202  0.05231  0.90583  1.0000
  C   C107      1.0  0.00207  0.03352  0.92034  1.0000
  C   C108      1.0  0.00207  0.97395  0.92034  1.0000
  N   N20       1.0  0.00191  0.09027  0.87508  1.0000
  C   C109      1.0  0.00195  0.12678  0.88722  1.0000
  N   N21       1.0  0.00201  0.10991  0.90161  1.0000
  C   C110      1.0  0.00194  0.18490  0.88253  1.0000
  C   C111      1.0  0.00188  0.18491  0.86764  1.0000
  C   C112      1.0  0.00186  0.12681  0.86294  1.0000
  C   C113      1.0  0.00212  0.94162  0.93326  1.0000
  C   C114      1.0  0.00217  0.97263  0.94654  1.0000
  C   C115      1.0  0.00217  0.03440  0.94655  1.0000
  C   C116      1.0  0.00212  0.06568  0.93327  1.0000
  C   C117      1.0  0.00185  0.23659  0.85956  1.0000
  C   C118      1.0  0.00188  0.28976  0.86734  1.0000
  C   C119      1.0  0.00194  0.28971  0.88278  1.0000
  C   C120      1.0  0.00196  0.23656  0.89058  1.0000
  N   N22       1.0  0.00183  0.00352  0.85336  1.0000
  C   C121      1.0  0.00179  0.05208  0.84425  1.0000
  N   N23       1.0  0.00181  0.10980  0.84852  1.0000
  C   C122      1.0  0.00174  0.03334  0.82970  1.0000
  C   C123      1.0  0.00174  0.97372  0.82969  1.0000
  C   C124      1.0  0.00179  0.95493  0.84421  1.0000
  C   C125      1.0  0.00169  0.94154  0.81675  1.0000
  C   C126      1.0  0.00164  0.97279  0.80346  1.0000
  C   C127      1.0  0.00164  0.03461  0.80349  1.0000
  C   C128      1.0  0.00169  0.06569  0.81680  1.0000
  N   N24       1.0  0.00181  0.89725  0.84841  1.0000
  H   H33       1.0  0.00181  0.77121  0.84811  1.0000
  H   H34       1.0  0.00201  0.77136  0.90181  1.0000
  H   H35       1.0  0.00212  0.89635  0.93309  1.0000
  H   H36       1.0  0.00212  0.11094  0.93312  1.0000
  H   H37       1.0  0.00181  0.23598  0.84825  1.0000
  H   H38       1.0  0.00201  0.23590  0.90190  1.0000
  H   H39       1.0  0.00169  0.89625  0.81689  1.0000
  H   H40       1.0  0.00169  0.11100  0.81697  1.0000
  C   C129      1.0  0.00159  0.94249  0.79016  1.0000
  C   C130      1.0  0.00155  0.97334  0.77690  1.0000
  C   C131      1.0  0.00155  0.03448  0.77692  1.0000
  C   C132      1.0  0.00159  0.06510  0.79020  1.0000
  C   C133      1.0  0.00185  0.66419  0.85964  1.0000
  C   C134      1.0  0.00188  0.61115  0.86734  1.0000
  C   C135      1.0  0.00194  0.61119  0.88262  1.0000
  C   C136      1.0  0.00196  0.66428  0.89029  1.0000
  C   C137      1.0  0.00222  0.94214  0.95984  1.0000
  C   C138      1.0  0.00227  0.97276  0.97311  1.0000
  C   C139      1.0  0.00227  0.03389  0.97311  1.0000
  C   C140      1.0  0.00222  0.06467  0.95985  1.0000
  C   C141      1.0  0.00185  0.34297  0.85973  1.0000
  C   C142      1.0  0.00188  0.39595  0.86738  1.0000
  C   C143      1.0  0.00194  0.39594  0.88265  1.0000
  C   C144      1.0  0.00196  0.34290  0.89034  1.0000
  H   H41       1.0  0.00159  0.89723  0.79012  1.0000
  O   O17       1.0  0.00150  0.94370  0.76395  1.0000
  O   O18       1.0  0.00150  0.06432  0.76399  1.0000
  H   H42       1.0  0.00159  0.11042  0.79018  1.0000
  H   H43       1.0  0.00181  0.66407  0.84832  1.0000
  O   O19       1.0  0.00185  0.55935  0.85992  1.0000
  O   O20       1.0  0.00196  0.55942  0.89008  1.0000
  H   H44       1.0  0.00201  0.66415  0.90161  1.0000
  H   H45       1.0  0.00222  0.89690  0.95987  1.0000
  O   O21       1.0  0.00232  0.94295  0.98605  1.0000
  O   O22       1.0  0.00232  0.06344  0.98605  1.0000
  H   H46       1.0  0.00222  0.10991  0.95988  1.0000
  H   H47       1.0  0.00181  0.34312  0.84843  1.0000
  O   O23       1.0  0.00185  0.44774  0.85995  1.0000
  O   O24       1.0  0.00196  0.44766  0.89006  1.0000
  H   H48       1.0  0.00201  0.34300  0.90165  1.0000
  Ni  Ni3       1.0  0.00191  0.00363  0.87502  1.0000
  C   C145      1.0  0.06569  0.00215  0.43326  1.0000
  C   C146      1.0  0.03443  0.00220  0.44654  1.0000
  C   C147      1.0  0.97258  0.00220  0.44651  1.0000
  C   C148      1.0  0.94145  0.00215  0.43321  1.0000
  C   C149      1.0  0.97383  0.00211  0.42030  1.0000
  C   C150      1.0  0.03346  0.00211  0.42032  1.0000
  C   C151      1.0  0.05223  0.00205  0.40580  1.0000
  N   N25       1.0  0.00363  0.00202  0.39664  1.0000
  C   C152      1.0  0.95505  0.00205  0.40576  1.0000
  N   N26       1.0  0.89729  0.00204  0.40149  1.0000
  C   C153      1.0  0.88032  0.00198  0.38707  1.0000
  N   N27       1.0  0.91688  0.00194  0.37493  1.0000
  C   C154      1.0  0.88034  0.00189  0.36278  1.0000
  C   C155      1.0  0.82226  0.00191  0.36747  1.0000
  C   C156      1.0  0.82219  0.00196  0.38236  1.0000
  N   N28       1.0  0.00337  0.00186  0.35332  1.0000
  C   C157      1.0  0.95484  0.00182  0.34418  1.0000
  N   N29       1.0  0.89726  0.00184  0.34839  1.0000
  C   C158      1.0  0.97364  0.00177  0.32966  1.0000
  C   C159      1.0  0.03321  0.00177  0.32967  1.0000
  C   C160      1.0  0.05196  0.00182  0.34420  1.0000
  C   C161      1.0  0.77051  0.00199  0.39043  1.0000
  C   C162      1.0  0.71739  0.00197  0.38267  1.0000
  C   C163      1.0  0.71741  0.00191  0.36722  1.0000
  C   C164      1.0  0.77056  0.00188  0.35942  1.0000
  C   C165      1.0  0.06555  0.00172  0.31675  1.0000
  C   C166      1.0  0.03452  0.00167  0.30345  1.0000
  C   C167      1.0  0.97273  0.00167  0.30345  1.0000
  C   C168      1.0  0.94147  0.00172  0.31673  1.0000
  N   N30       1.0  0.09016  0.00194  0.37503  1.0000
  C   C169      1.0  0.12666  0.00189  0.36290  1.0000
  N   N31       1.0  0.10963  0.00184  0.34846  1.0000
  C   C170      1.0  0.18481  0.00191  0.36760  1.0000
  C   C171      1.0  0.18481  0.00197  0.38250  1.0000
  C   C172      1.0  0.12673  0.00198  0.38719  1.0000
  C   C173      1.0  0.23654  0.00200  0.39056  1.0000
  C   C174      1.0  0.28972  0.00197  0.38276  1.0000
  C   C175      1.0  0.28968  0.00191  0.36730  1.0000
  C   C176      1.0  0.23647  0.00188  0.35952  1.0000
  N   N32       1.0  0.10985  0.00204  0.40160  1.0000
  H   H49       1.0  0.11096  0.00215  0.43312  1.0000
  H   H50       1.0  0.89615  0.00215  0.43303  1.0000
  H   H51       1.0  0.77114  0.00204  0.40175  1.0000
  H   H52       1.0  0.77120  0.00184  0.34810  1.0000
  H   H53       1.0  0.11080  0.00172  0.31692  1.0000
  H   H54       1.0  0.89621  0.00172  0.31689  1.0000
  H   H55       1.0  0.23593  0.00204  0.40188  1.0000
  H   H56       1.0  0.23580  0.00184  0.34819  1.0000
  C   C177      1.0  0.34291  0.00199  0.39035  1.0000
  C   C178      1.0  0.39596  0.00197  0.38265  1.0000
  C   C179      1.0  0.39593  0.00191  0.36736  1.0000
  C   C180      1.0  0.34285  0.00188  0.35969  1.0000
  C   C181      1.0  0.06471  0.00225  0.45986  1.0000
  C   C182      1.0  0.03389  0.00230  0.47312  1.0000
  C   C183      1.0  0.97275  0.00230  0.47309  1.0000
  C   C184      1.0  0.94212  0.00225  0.45981  1.0000
  C   C185      1.0  0.66417  0.00199  0.39028  1.0000
  C   C186      1.0  0.61114  0.00197  0.38261  1.0000
  C   C187      1.0  0.61120  0.00191  0.36733  1.0000
  C   C188      1.0  0.66425  0.00188  0.35964  1.0000
  C   C189      1.0  0.06501  0.00162  0.29016  1.0000
  C   C190      1.0  0.03444  0.00157  0.27690  1.0000
  C   C191      1.0  0.97336  0.00157  0.27689  1.0000
  C   C192      1.0  0.94255  0.00162  0.29015  1.0000
  H   H57       1.0  0.34303  0.00204  0.40166  1.0000
  O   O25       1.0  0.44773  0.00199  0.39007  1.0000
  O   O26       1.0  0.44768  0.00188  0.35991  1.0000
  H   H58       1.0  0.34297  0.00184  0.34836  1.0000
  H   H59       1.0  0.10999  0.00225  0.45991  1.0000
  O   O27       1.0  0.06352  0.00235  0.48608  1.0000
  O   O28       1.0  0.94288  0.00235  0.48603  1.0000
  H   H60       1.0  0.89683  0.00225  0.45984  1.0000
  H   H61       1.0  0.66400  0.00204  0.40159  1.0000
  O   O29       1.0  0.55935  0.00199  0.39005  1.0000
  O   O30       1.0  0.55947  0.00188  0.35993  1.0000
  H   H62       1.0  0.66416  0.00184  0.34833  1.0000
  H   H63       1.0  0.11021  0.00162  0.29013  1.0000
  O   O31       1.0  0.06422  0.00153  0.26396  1.0000
  O   O32       1.0  0.94377  0.00153  0.26395  1.0000
  H   H64       1.0  0.89729  0.00162  0.29011  1.0000
  Ni  Ni4       1.0  0.00351  0.00194  0.37498  1.0000
  Cu  Cu1       1.0  0.00454  0.50267  0.12498  1.0000
  Cu  Cu2       1.0  0.50267  0.00455  0.62500  1.0000
  Cu  Cu3       1.0  0.00191  0.50355  0.87500  1.0000
  Cu  Cu4       1.0  0.50356  0.00194  0.37499  1.0000
  Cu  Cu5       1.0  0.00324  0.00316  0.00010  1.0000
  Cu  Cu6       1.0  0.00315  0.00327  0.50001  1.0000
  Zn  Zn1       1.0  0.00446  0.00194  0.24999  1.0000
  Zn  Zn2       1.0  0.00192  0.00447  0.75002  1.0000
