data_image0
_chemical_formula_structural       C7NCNCNC3NCNC11NCNC7NHO2H2O2H2O2H2O2HNiC7NCNCNC3NCNC11NCNC7NHO2H2O2H2O2H2O2HNiC7NCNCNC3NCNC11NCNC7NHO2H2O2H2O2H2O2HNiC7NCNCNC3NCNC11NCNC7NHO2H2O2H2O2H2O2HNiC7NCNCNC3NCNC11NCNC7NHO2H2O2H2O2H2O2HNiC7NCNCNC3NCNC11NCNC7NHO2H2O2H2O2H2O2HNiZn2Cu10
_chemical_formula_sum              "C192 N48 H48 O48 Ni6 Zn2 Cu10"
_cell_length_a       19.2397
_cell_length_b       19.2397
_cell_length_c       115.439
_cell_angle_alpha    90.0031
_cell_angle_beta     90.0043
_cell_angle_gamma    90

_space_group_name_H-M_alt    "P 1"
_space_group_IT_number       1

loop_
  _space_group_symop_operation_xyz
  'x, y, z'

loop_
  _atom_site_type_symbol
  _atom_site_label
  _atom_site_symmetry_multiplicity
  _atom_site_fract_x
  _atom_site_fract_y
  _atom_site_fract_z
  _atom_site_occupancy
  C   C1        1.0  0.99990  0.08122  0.95946  1.0000
  C   C2        1.0  0.99990  0.04060  0.94788  1.0000
  C   C3        1.0  0.99990  0.95972  0.94788  1.0000
  C   C4        1.0  0.00010  0.91907  0.95945  1.0000
  C   C5        1.0  0.99990  0.96146  0.97068  1.0000
  C   C6        1.0  0.99990  0.03881  0.97068  1.0000
  C   C7        1.0  0.99990  0.06297  0.98330  1.0000
  N   N1        1.0  0.99990  0.00010  0.99146  1.0000
  C   C8        1.0  0.99990  0.93728  0.98330  1.0000
  N   N2        1.0  0.00010  0.86315  0.98649  1.0000
  C   C9        1.0  0.00010  0.84402  0.99884  1.0000
  N   N3        1.0  0.99990  0.89300  0.00931  1.0000
  C   C10       1.0  0.99990  0.84403  0.01979  1.0000
  C   C11       1.0  0.00010  0.76833  0.01576  1.0000
  C   C12       1.0  0.00010  0.76830  0.00287  1.0000
  N   N4        1.0  0.99990  0.00010  0.02717  1.0000
  C   C13       1.0  0.99990  0.93728  0.03533  1.0000
  N   N5        1.0  0.99990  0.86316  0.03214  1.0000
  C   C14       1.0  0.99990  0.96146  0.04795  1.0000
  C   C15       1.0  0.00010  0.03880  0.04795  1.0000
  C   C16       1.0  0.00010  0.06297  0.03533  1.0000
  C   C17       1.0  0.00010  0.70091  0.99581  1.0000
  C   C18       1.0  0.00010  0.63148  0.00259  1.0000
  C   C19       1.0  0.00010  0.63152  0.01607  1.0000
  C   C20       1.0  0.00010  0.70098  0.02283  1.0000
  C   C21       1.0  0.00010  0.08121  0.05918  1.0000
  C   C22       1.0  0.99990  0.04059  0.07075  1.0000
  C   C23       1.0  0.99990  0.95972  0.07075  1.0000
  C   C24       1.0  0.99990  0.91907  0.05918  1.0000
  N   N6        1.0  0.99990  0.10724  0.00932  1.0000
  C   C25       1.0  0.00010  0.15621  0.01979  1.0000
  N   N7        1.0  0.00010  0.13709  0.03214  1.0000
  C   C26       1.0  0.00010  0.23192  0.01577  1.0000
  C   C27       1.0  0.99990  0.23193  0.00288  1.0000
  C   C28       1.0  0.99990  0.15622  0.99884  1.0000
  C   C29       1.0  0.99990  0.29931  0.99581  1.0000
  C   C30       1.0  0.00010  0.36875  0.00259  1.0000
  C   C31       1.0  0.00010  0.36872  0.01607  1.0000
  C   C32       1.0  0.00010  0.29926  0.02284  1.0000
  N   N8        1.0  0.99990  0.13709  0.98649  1.0000
  H   H1        1.0  0.99990  0.13579  0.95961  1.0000
  O   O1        1.0  0.99990  0.07422  0.93811  1.0000
  O   O2        1.0  0.99990  0.92612  0.93811  1.0000
  H   H2        1.0  0.00010  0.86451  0.95960  1.0000
  H   H3        1.0  0.00010  0.70177  0.98672  1.0000
  O   O3        1.0  0.00010  0.57285  0.99699  1.0000
  O   O4        1.0  0.00010  0.57292  0.02167  1.0000
  H   H4        1.0  0.00010  0.70190  0.03193  1.0000
  H   H5        1.0  0.00010  0.13577  0.05903  1.0000
  O   O5        1.0  0.99990  0.07420  0.08052  1.0000
  O   O6        1.0  0.99990  0.92610  0.08052  1.0000
  H   H6        1.0  0.99990  0.86450  0.05903  1.0000
  H   H7        1.0  0.99990  0.29844  0.98672  1.0000
  O   O7        1.0  0.00010  0.42737  0.99699  1.0000
  O   O8        1.0  0.00010  0.42733  0.02168  1.0000
  H   H8        1.0  0.00010  0.29834  0.03193  1.0000
  Ni  Ni1       1.0  0.99990  0.00010  0.00931  1.0000
  C   C33       1.0  0.91910  0.00010  0.55917  1.0000
  C   C34       1.0  0.95973  0.00010  0.57075  1.0000
  C   C35       1.0  0.04061  0.00010  0.57075  1.0000
  C   C36       1.0  0.08125  0.00010  0.55918  1.0000
  C   C37       1.0  0.03886  0.00010  0.54795  1.0000
  C   C38       1.0  0.96151  0.00010  0.54795  1.0000
  C   C39       1.0  0.93735  0.00010  0.53533  1.0000
  N   N9        1.0  0.00010  0.00010  0.52717  1.0000
  C   C40       1.0  0.06304  0.00010  0.53533  1.0000
  N   N10       1.0  0.13717  0.99990  0.53214  1.0000
  C   C41       1.0  0.15630  0.99990  0.51979  1.0000
  N   N11       1.0  0.10732  0.00010  0.50932  1.0000
  C   C42       1.0  0.15628  0.00010  0.49884  1.0000
  C   C43       1.0  0.23199  0.00010  0.50287  1.0000
  C   C44       1.0  0.23202  0.99990  0.51576  1.0000
  N   N12       1.0  0.00010  0.00010  0.49146  1.0000
  C   C45       1.0  0.06304  0.00010  0.48330  1.0000
  N   N13       1.0  0.13716  0.00010  0.48649  1.0000
  C   C46       1.0  0.03886  0.00010  0.47068  1.0000
  C   C47       1.0  0.96151  0.00010  0.47068  1.0000
  C   C48       1.0  0.93735  0.00010  0.48330  1.0000
  C   C49       1.0  0.29941  0.99990  0.52282  1.0000
  C   C50       1.0  0.36884  0.99990  0.51604  1.0000
  C   C51       1.0  0.36880  0.99990  0.50256  1.0000
  C   C52       1.0  0.29933  0.00010  0.49580  1.0000
  C   C53       1.0  0.91911  0.00010  0.45945  1.0000
  C   C54       1.0  0.95973  0.00010  0.44788  1.0000
  C   C55       1.0  0.04060  0.00010  0.44788  1.0000
  C   C56       1.0  0.08124  0.00010  0.45945  1.0000
  N   N14       1.0  0.89308  0.00010  0.50931  1.0000
  C   C57       1.0  0.84411  0.99990  0.49884  1.0000
  N   N15       1.0  0.86323  0.99990  0.48649  1.0000
  C   C58       1.0  0.76840  0.99990  0.50286  1.0000
  C   C59       1.0  0.76839  0.00010  0.51575  1.0000
  C   C60       1.0  0.84410  0.00010  0.51979  1.0000
  C   C61       1.0  0.70101  0.00010  0.52282  1.0000
  C   C62       1.0  0.63157  0.00010  0.51604  1.0000
  C   C63       1.0  0.63159  0.99990  0.50256  1.0000
  C   C64       1.0  0.70106  0.99990  0.49579  1.0000
  N   N16       1.0  0.86323  0.00010  0.53214  1.0000
  H   H9        1.0  0.86454  0.00010  0.55902  1.0000
  O   O9        1.0  0.92611  0.00010  0.58052  1.0000
  O   O10       1.0  0.07421  0.00010  0.58052  1.0000
  H   H10       1.0  0.13582  0.00010  0.55903  1.0000
  H   H11       1.0  0.29855  0.99990  0.53191  1.0000
  O   O11       1.0  0.42747  0.99990  0.52164  1.0000
  O   O12       1.0  0.42740  0.99990  0.49696  1.0000
  H   H12       1.0  0.29842  0.00010  0.48670  1.0000
  H   H13       1.0  0.86454  0.99990  0.45960  1.0000
  O   O13       1.0  0.92611  0.00010  0.43811  1.0000
  O   O14       1.0  0.07421  0.00010  0.43811  1.0000
  H   H14       1.0  0.13581  0.00010  0.45960  1.0000
  H   H15       1.0  0.70188  0.00010  0.53191  1.0000
  O   O15       1.0  0.57295  0.99990  0.52164  1.0000
  O   O16       1.0  0.57299  0.99990  0.49695  1.0000
  H   H16       1.0  0.70197  0.99990  0.48670  1.0000
  Ni  Ni2       1.0  0.00010  0.00010  0.50932  1.0000
  C   C65       1.0  0.99990  0.08118  0.12612  1.0000
  C   C66       1.0  0.99990  0.04055  0.11455  1.0000
  C   C67       1.0  0.99990  0.95968  0.11454  1.0000
  C   C68       1.0  0.99990  0.91903  0.12612  1.0000
  C   C69       1.0  0.99990  0.96142  0.13735  1.0000
  C   C70       1.0  0.99990  0.03877  0.13735  1.0000
  C   C71       1.0  0.99990  0.06293  0.14997  1.0000
  N   N17       1.0  0.99990  0.00010  0.15813  1.0000
  C   C72       1.0  0.99990  0.93724  0.14997  1.0000
  N   N18       1.0  0.00010  0.86311  0.15315  1.0000
  C   C73       1.0  0.00010  0.84398  0.16551  1.0000
  N   N19       1.0  0.99990  0.89296  0.17598  1.0000
  C   C74       1.0  0.99990  0.84399  0.18646  1.0000
  C   C75       1.0  0.00010  0.76829  0.18243  1.0000
  C   C76       1.0  0.00010  0.76826  0.16954  1.0000
  N   N20       1.0  0.99990  0.00010  0.19384  1.0000
  C   C77       1.0  0.99990  0.93724  0.20200  1.0000
  N   N21       1.0  0.99990  0.86312  0.19881  1.0000
  C   C78       1.0  0.99990  0.96142  0.21462  1.0000
  C   C79       1.0  0.00010  0.03877  0.21462  1.0000
  C   C80       1.0  0.00010  0.06293  0.20200  1.0000
  C   C81       1.0  0.00010  0.70087  0.16248  1.0000
  C   C82       1.0  0.00010  0.63144  0.16926  1.0000
  C   C83       1.0  0.00010  0.63148  0.18273  1.0000
  C   C84       1.0  0.00010  0.70094  0.18950  1.0000
  C   C85       1.0  0.00010  0.08117  0.22584  1.0000
  C   C86       1.0  0.99990  0.04055  0.23742  1.0000
  C   C87       1.0  0.99990  0.95968  0.23742  1.0000
  C   C88       1.0  0.99990  0.91903  0.22585  1.0000
  N   N22       1.0  0.99990  0.10720  0.17598  1.0000
  C   C89       1.0  0.00010  0.15617  0.18646  1.0000
  N   N23       1.0  0.00010  0.13705  0.19881  1.0000
  C   C90       1.0  0.00010  0.23188  0.18243  1.0000
  C   C91       1.0  0.99990  0.23189  0.16954  1.0000
  C   C92       1.0  0.99990  0.15618  0.16551  1.0000
  C   C93       1.0  0.99990  0.29927  0.16248  1.0000
  C   C94       1.0  0.00010  0.36871  0.16926  1.0000
  C   C95       1.0  0.00010  0.36868  0.18274  1.0000
  C   C96       1.0  0.00010  0.29922  0.18950  1.0000
  N   N24       1.0  0.99990  0.13705  0.15316  1.0000
  H   H17       1.0  0.99990  0.13575  0.12627  1.0000
  O   O17       1.0  0.99990  0.07418  0.10478  1.0000
  O   O18       1.0  0.99990  0.92608  0.10477  1.0000
  H   H18       1.0  0.00010  0.86446  0.12627  1.0000
  H   H19       1.0  0.00010  0.70173  0.15338  1.0000
  O   O19       1.0  0.00010  0.57281  0.16366  1.0000
  O   O20       1.0  0.00010  0.57288  0.18834  1.0000
  H   H20       1.0  0.00010  0.70186  0.19859  1.0000
  H   H21       1.0  0.00010  0.13573  0.22570  1.0000
  O   O21       1.0  0.99990  0.07417  0.24719  1.0000
  O   O22       1.0  0.99990  0.92607  0.24719  1.0000
  H   H22       1.0  0.99990  0.86446  0.22570  1.0000
  H   H23       1.0  0.99990  0.29840  0.15339  1.0000
  O   O23       1.0  0.00010  0.42733  0.16366  1.0000
  O   O24       1.0  0.00010  0.42729  0.18834  1.0000
  H   H24       1.0  0.00010  0.29830  0.19860  1.0000
  Ni  Ni3       1.0  0.99990  0.00010  0.17598  1.0000
  C   C97       1.0  0.08122  0.00010  0.62612  1.0000
  C   C98       1.0  0.04059  0.00010  0.61455  1.0000
  C   C99       1.0  0.95972  0.00010  0.61454  1.0000
  C   C100      1.0  0.91907  0.00010  0.62612  1.0000
  C   C101      1.0  0.96146  0.00010  0.63735  1.0000
  C   C102      1.0  0.03881  0.00010  0.63735  1.0000
  C   C103      1.0  0.06297  0.00010  0.64997  1.0000
  N   N25       1.0  0.00010  0.00010  0.65813  1.0000
  C   C104      1.0  0.93728  0.00010  0.64997  1.0000
  N   N26       1.0  0.86315  0.99990  0.65315  1.0000
  C   C105      1.0  0.84401  0.99990  0.66551  1.0000
  N   N27       1.0  0.89300  0.00010  0.67598  1.0000
  C   C106      1.0  0.84403  0.00010  0.68646  1.0000
  C   C107      1.0  0.76832  0.00010  0.68243  1.0000
  C   C108      1.0  0.76830  0.99990  0.66954  1.0000
  N   N28       1.0  0.00010  0.00010  0.69384  1.0000
  C   C109      1.0  0.93728  0.00010  0.70200  1.0000
  N   N29       1.0  0.86316  0.00010  0.69881  1.0000
  C   C110      1.0  0.96146  0.00010  0.71462  1.0000
  C   C111      1.0  0.03880  0.00010  0.71462  1.0000
  C   C112      1.0  0.06297  0.00010  0.70200  1.0000
  C   C113      1.0  0.70091  0.99990  0.66248  1.0000
  C   C114      1.0  0.63148  0.99990  0.66926  1.0000
  C   C115      1.0  0.63152  0.99990  0.68273  1.0000
  C   C116      1.0  0.70098  0.00010  0.68950  1.0000
  C   C117      1.0  0.08121  0.00010  0.72585  1.0000
  C   C118      1.0  0.04059  0.00010  0.73742  1.0000
  C   C119      1.0  0.95972  0.00010  0.73742  1.0000
  C   C120      1.0  0.91907  0.00010  0.72585  1.0000
  N   N30       1.0  0.10724  0.00010  0.67598  1.0000
  C   C121      1.0  0.15621  0.99990  0.68646  1.0000
  N   N31       1.0  0.13709  0.99990  0.69881  1.0000
  C   C122      1.0  0.23192  0.99990  0.68243  1.0000
  C   C123      1.0  0.23193  0.00010  0.66954  1.0000
  C   C124      1.0  0.15622  0.00010  0.66551  1.0000
  C   C125      1.0  0.29931  0.00010  0.66248  1.0000
  C   C126      1.0  0.36875  0.00010  0.66926  1.0000
  C   C127      1.0  0.36872  0.99990  0.68274  1.0000
  C   C128      1.0  0.29926  0.99990  0.68951  1.0000
  N   N32       1.0  0.13709  0.00010  0.65316  1.0000
  H   H25       1.0  0.13578  0.00010  0.62627  1.0000
  O   O25       1.0  0.07421  0.00010  0.60478  1.0000
  O   O26       1.0  0.92611  0.00010  0.60477  1.0000
  H   H26       1.0  0.86450  0.00010  0.62627  1.0000
  H   H27       1.0  0.70177  0.99990  0.65338  1.0000
  O   O27       1.0  0.57285  0.99990  0.66366  1.0000
  O   O28       1.0  0.57292  0.99990  0.68834  1.0000
  H   H28       1.0  0.70190  0.00010  0.69859  1.0000
  H   H29       1.0  0.13577  0.99990  0.72570  1.0000
  O   O29       1.0  0.07421  0.00010  0.74719  1.0000
  O   O30       1.0  0.92611  0.00010  0.74719  1.0000
  H   H30       1.0  0.86450  0.00010  0.72570  1.0000
  H   H31       1.0  0.29844  0.00010  0.65339  1.0000
  O   O31       1.0  0.42737  0.99990  0.66366  1.0000
  O   O32       1.0  0.42733  0.99990  0.68834  1.0000
  H   H32       1.0  0.29834  0.99990  0.69860  1.0000
  Ni  Ni4       1.0  0.00010  0.00010  0.67598  1.0000
  C   C129      1.0  0.99990  0.91908  0.89251  1.0000
  C   C130      1.0  0.99990  0.95971  0.90408  1.0000
  C   C131      1.0  0.99990  0.04058  0.90409  1.0000
  C   C132      1.0  0.99990  0.08123  0.89251  1.0000
  C   C133      1.0  0.99990  0.03884  0.88128  1.0000
  C   C134      1.0  0.99990  0.96149  0.88128  1.0000
  C   C135      1.0  0.99990  0.93732  0.86866  1.0000
  N   N33       1.0  0.99990  0.00010  0.86050  1.0000
  C   C136      1.0  0.99990  0.06302  0.86866  1.0000
  N   N34       1.0  0.00010  0.13714  0.86548  1.0000
  C   C137      1.0  0.00010  0.15628  0.85312  1.0000
  N   N35       1.0  0.99990  0.10729  0.84265  1.0000
  C   C138      1.0  0.99990  0.15626  0.83217  1.0000
  C   C139      1.0  0.00010  0.23196  0.83620  1.0000
  C   C140      1.0  0.00010  0.23199  0.84909  1.0000
  N   N36       1.0  0.99990  0.00010  0.82479  1.0000
  C   C141      1.0  0.99990  0.06301  0.81663  1.0000
  N   N37       1.0  0.99990  0.13713  0.81982  1.0000
  C   C142      1.0  0.99990  0.03883  0.80401  1.0000
  C   C143      1.0  0.00010  0.96148  0.80401  1.0000
  C   C144      1.0  0.00010  0.93732  0.81663  1.0000
  C   C145      1.0  0.00010  0.29938  0.85615  1.0000
  C   C146      1.0  0.00010  0.36881  0.84937  1.0000
  C   C147      1.0  0.00010  0.36877  0.83589  1.0000
  C   C148      1.0  0.00010  0.29931  0.82913  1.0000
  C   C149      1.0  0.00010  0.91908  0.79279  1.0000
  C   C150      1.0  0.00010  0.95969  0.78121  1.0000
  C   C151      1.0  0.99990  0.04056  0.78121  1.0000
  C   C152      1.0  0.99990  0.08121  0.79278  1.0000
  N   N38       1.0  0.99990  0.89305  0.84265  1.0000
  C   C153      1.0  0.00010  0.84408  0.83217  1.0000
  N   N39       1.0  0.00010  0.86320  0.81982  1.0000
  C   C154      1.0  0.00010  0.76837  0.83620  1.0000
  C   C155      1.0  0.99990  0.76836  0.84909  1.0000
  C   C156      1.0  0.99990  0.84407  0.85312  1.0000
  C   C157      1.0  0.99990  0.70098  0.85615  1.0000
  C   C158      1.0  0.00010  0.63154  0.84937  1.0000
  C   C159      1.0  0.00010  0.63157  0.83589  1.0000
  C   C160      1.0  0.00010  0.70103  0.82913  1.0000
  N   N40       1.0  0.99990  0.86320  0.86547  1.0000
  H   H33       1.0  0.99990  0.86451  0.89236  1.0000
  O   O33       1.0  0.99990  0.92609  0.91385  1.0000
  O   O34       1.0  0.99990  0.07419  0.91386  1.0000
  H   H34       1.0  0.00010  0.13580  0.89236  1.0000
  H   H35       1.0  0.00010  0.29852  0.86525  1.0000
  O   O35       1.0  0.00010  0.42744  0.85497  1.0000
  O   O36       1.0  0.00010  0.42737  0.83029  1.0000
  H   H36       1.0  0.00010  0.29839  0.82003  1.0000
  H   H37       1.0  0.00010  0.86451  0.79293  1.0000
  O   O37       1.0  0.99990  0.92607  0.77144  1.0000
  O   O38       1.0  0.99990  0.07417  0.77144  1.0000
  H   H38       1.0  0.99990  0.13578  0.79293  1.0000
  H   H39       1.0  0.99990  0.70186  0.86525  1.0000
  O   O39       1.0  0.00010  0.57292  0.85497  1.0000
  O   O40       1.0  0.00010  0.57296  0.83029  1.0000
  H   H40       1.0  0.00010  0.70194  0.82003  1.0000
  Ni  Ni5       1.0  0.99990  0.00010  0.84265  1.0000
  C   C161      1.0  0.91910  0.00010  0.39251  1.0000
  C   C162      1.0  0.95973  0.00010  0.40408  1.0000
  C   C163      1.0  0.04061  0.00010  0.40409  1.0000
  C   C164      1.0  0.08125  0.00010  0.39251  1.0000
  C   C165      1.0  0.03886  0.00010  0.38128  1.0000
  C   C166      1.0  0.96151  0.00010  0.38128  1.0000
  C   C167      1.0  0.93734  0.00010  0.36866  1.0000
  N   N41       1.0  0.00010  0.00010  0.36050  1.0000
  C   C168      1.0  0.06303  0.00010  0.36866  1.0000
  N   N42       1.0  0.13716  0.99990  0.36548  1.0000
  C   C169      1.0  0.15629  0.99990  0.35312  1.0000
  N   N43       1.0  0.10730  0.00010  0.34265  1.0000
  C   C170      1.0  0.15627  0.00010  0.33217  1.0000
  C   C171      1.0  0.23198  0.00010  0.33620  1.0000
  C   C172      1.0  0.23200  0.99990  0.34909  1.0000
  N   N44       1.0  0.00010  0.00010  0.32479  1.0000
  C   C173      1.0  0.06301  0.00010  0.31663  1.0000
  N   N45       1.0  0.13714  0.00010  0.31982  1.0000
  C   C174      1.0  0.03883  0.00010  0.30401  1.0000
  C   C175      1.0  0.96148  0.00010  0.30401  1.0000
  C   C176      1.0  0.93733  0.00010  0.31663  1.0000
  C   C177      1.0  0.29940  0.99990  0.35615  1.0000
  C   C178      1.0  0.36882  0.99990  0.34937  1.0000
  C   C179      1.0  0.36878  0.99990  0.33589  1.0000
  C   C180      1.0  0.29932  0.00010  0.32913  1.0000
  C   C181      1.0  0.91908  0.00010  0.29279  1.0000
  C   C182      1.0  0.95969  0.00010  0.28121  1.0000
  C   C183      1.0  0.04056  0.00010  0.28121  1.0000
  C   C184      1.0  0.08121  0.00010  0.29278  1.0000
  N   N46       1.0  0.89306  0.00010  0.34265  1.0000
  C   C185      1.0  0.84409  0.99990  0.33217  1.0000
  N   N47       1.0  0.86321  0.99990  0.31982  1.0000
  C   C186      1.0  0.76838  0.99990  0.33620  1.0000
  C   C187      1.0  0.76837  0.00010  0.34909  1.0000
  C   C188      1.0  0.84409  0.00010  0.35312  1.0000
  C   C189      1.0  0.70100  0.00010  0.35615  1.0000
  C   C190      1.0  0.63156  0.00010  0.34937  1.0000
  C   C191      1.0  0.63158  0.99990  0.33590  1.0000
  C   C192      1.0  0.70104  0.99990  0.32913  1.0000
  N   N48       1.0  0.86322  0.00010  0.36547  1.0000
  H   H41       1.0  0.86453  0.00010  0.39236  1.0000
  O   O41       1.0  0.92611  0.00010  0.41385  1.0000
  O   O42       1.0  0.07421  0.00010  0.41386  1.0000
  H   H42       1.0  0.13582  0.00010  0.39236  1.0000
  H   H43       1.0  0.29854  0.99990  0.36524  1.0000
  O   O43       1.0  0.42746  0.99990  0.35497  1.0000
  O   O44       1.0  0.42738  0.99990  0.33029  1.0000
  H   H44       1.0  0.29840  0.00010  0.32003  1.0000
  H   H45       1.0  0.86451  0.99990  0.29294  1.0000
  O   O45       1.0  0.92607  0.00010  0.27144  1.0000
  O   O46       1.0  0.07417  0.00010  0.27144  1.0000
  H   H46       1.0  0.13578  0.00010  0.29293  1.0000
  H   H47       1.0  0.70187  0.00010  0.36525  1.0000
  O   O47       1.0  0.57294  0.99990  0.35497  1.0000
  O   O48       1.0  0.57297  0.99990  0.33029  1.0000
  H   H48       1.0  0.70195  0.99990  0.32003  1.0000
  Ni  Ni6       1.0  0.00010  0.00010  0.34265  1.0000
  Zn  Zn1       1.0  0.99990  0.00010  0.25931  1.0000
  Zn  Zn2       1.0  0.99990  0.00010  0.75932  1.0000
  Cu  Cu1       1.0  0.00010  0.50008  0.17600  1.0000
  Cu  Cu2       1.0  0.50012  0.99990  0.67600  1.0000
  Cu  Cu3       1.0  0.00010  0.50017  0.84263  1.0000
  Cu  Cu4       1.0  0.50019  0.99990  0.34263  1.0000
  Cu  Cu5       1.0  0.99990  0.00010  0.09265  1.0000
  Cu  Cu6       1.0  0.00010  0.00010  0.59265  1.0000
  Cu  Cu7       1.0  0.99990  0.00010  0.92598  1.0000
  Cu  Cu8       1.0  0.00010  0.00010  0.42598  1.0000
  Cu  Cu9       1.0  0.00010  0.50012  0.00933  1.0000
  Cu  Cu10      1.0  0.50020  0.99990  0.50930  1.0000
