data_image0
_chemical_formula_structural       C7NCNCNC3NCNC11NCNC7NH8C16HO2H2O2H2O2H2O2HNiC7NCNCNC3NCNC11NCNC7NH8C16HO2H2O2H2O2H2O2HNiC7NCNCNC3NCNC11NCNC7NH8C16HO2H2O2H2O2H2O2HNiC7NCNCNC3NCNC11NCNC7NH8C16HO2H2O2H2O2H2O2HNiC7NCNCNC3NCNC11NCNC7NH8C16HO2H2O2H2O2H2O2HNiC7NCNCNC3NCNC11NCNC7NH8C16HO2H2O2H2O2H2O2HNiZn2Cu10
_chemical_formula_sum              "C288 N48 H96 O48 Ni6 Zn2 Cu10"
_cell_length_a       25.0712
_cell_length_b       25.0718
_cell_length_c       150.437
_cell_angle_alpha    90.2837
_cell_angle_beta     90.2845
_cell_angle_gamma    89.991

_space_group_name_H-M_alt    "P 1"
_space_group_IT_number       1

loop_
  _space_group_symop_operation_xyz
  'x, y, z'

loop_
  _atom_site_type_symbol
  _atom_site_label
  _atom_site_symmetry_multiplicity
  _atom_site_fract_x
  _atom_site_fract_y
  _atom_site_fract_z
  _atom_site_occupancy
  C   C1        1.0  0.00010  0.77153  0.99856  1.0000
  C   C2        1.0  0.00010  0.71841  0.00376  1.0000
  C   C3        1.0  0.00010  0.71853  0.01407  1.0000
  C   C4        1.0  0.00010  0.77175  0.01927  1.0000
  C   C5        1.0  0.00010  0.82339  0.01388  1.0000
  C   C6        1.0  0.00010  0.82328  0.00394  1.0000
  C   C7        1.0  0.00010  0.88135  0.00010  1.0000
  N   N1        1.0  0.00010  0.91803  0.00893  1.0000
  C   C8        1.0  0.00010  0.88153  0.01702  1.0000
  N   N2        1.0  0.00010  0.89862  0.02664  1.0000
  C   C9        1.0  0.00010  0.95631  0.02948  1.0000
  N   N3        1.0  0.00010  0.00485  0.02340  1.0000
  C   C10       1.0  0.00010  0.05345  0.02949  1.0000
  C   C11       1.0  0.00010  0.03472  0.03917  1.0000
  C   C12       1.0  0.00010  0.97514  0.03917  1.0000
  N   N4        1.0  0.00010  0.09129  0.00899  1.0000
  C   C13       1.0  0.00010  0.12786  0.01709  1.0000
  N   N5        1.0  0.00010  0.11103  0.02668  1.0000
  C   C14       1.0  0.00010  0.18595  0.01396  1.0000
  C   C15       1.0  0.00010  0.18590  0.00404  1.0000
  C   C16       1.0  0.00010  0.12778  0.00010  1.0000
  C   C17       1.0  0.00010  0.94286  0.04778  1.0000
  C   C18       1.0  0.00010  0.97393  0.05664  1.0000
  C   C19       1.0  0.00010  0.03571  0.05664  1.0000
  C   C20       1.0  0.00010  0.06693  0.04779  1.0000
  C   C21       1.0  0.00010  0.23756  0.99865  1.0000
  C   C22       1.0  0.00010  0.29076  0.00383  1.0000
  C   C23       1.0  0.00010  0.29078  0.01413  1.0000
  C   C24       1.0  0.00010  0.23766  0.01933  1.0000
  N   N6        1.0  0.00010  0.00444  0.99452  1.0000
  C   C25       1.0  0.00010  0.05297  0.98844  1.0000
  N   N7        1.0  0.00010  0.11072  0.99129  1.0000
  C   C26       1.0  0.00010  0.03417  0.97875  1.0000
  C   C27       1.0  0.00010  0.97455  0.97874  1.0000
  C   C28       1.0  0.00010  0.95581  0.98842  1.0000
  C   C29       1.0  0.00010  0.94230  0.97011  1.0000
  C   C30       1.0  0.00010  0.97350  0.96125  1.0000
  C   C31       1.0  0.00010  0.03533  0.96127  1.0000
  C   C32       1.0  0.00010  0.06647  0.97014  1.0000
  N   N8        1.0  0.00010  0.89815  0.99122  1.0000
  H   H1        1.0  0.00010  0.77209  0.99102  1.0000
  H   H2        1.0  0.00010  0.77246  0.02682  1.0000
  H   H3        1.0  0.00010  0.89758  0.04767  1.0000
  H   H4        1.0  0.00010  0.11219  0.04769  1.0000
  H   H5        1.0  0.00010  0.23690  0.99111  1.0000
  H   H6        1.0  0.00010  0.23704  0.02688  1.0000
  H   H7        1.0  0.00010  0.89702  0.97021  1.0000
  H   H8        1.0  0.00010  0.11178  0.97026  1.0000
  C   C33       1.0  0.00010  0.94315  0.95238  1.0000
  C   C34       1.0  0.00010  0.97395  0.94355  1.0000
  C   C35       1.0  0.00010  0.03510  0.94356  1.0000
  C   C36       1.0  0.00010  0.06577  0.95241  1.0000
  C   C37       1.0  0.00010  0.66511  0.99871  1.0000
  C   C38       1.0  0.00010  0.61209  0.00384  1.0000
  C   C39       1.0  0.00010  0.61220  0.01403  1.0000
  C   C40       1.0  0.00010  0.66532  0.01914  1.0000
  C   C41       1.0  0.00010  0.94349  0.06550  1.0000
  C   C42       1.0  0.00010  0.97417  0.07435  1.0000
  C   C43       1.0  0.00010  0.03530  0.07435  1.0000
  C   C44       1.0  0.00010  0.06603  0.06551  1.0000
  C   C45       1.0  0.00010  0.34395  0.99876  1.0000
  C   C46       1.0  0.00010  0.39696  0.00386  1.0000
  C   C47       1.0  0.00010  0.39702  0.01404  1.0000
  C   C48       1.0  0.00010  0.34400  0.01917  1.0000
  H   H9        1.0  0.00010  0.89788  0.95236  1.0000
  O   O1        1.0  0.00010  0.94426  0.93492  1.0000
  O   O2        1.0  0.00010  0.06489  0.93494  1.0000
  H   H10       1.0  0.00010  0.11109  0.95240  1.0000
  H   H11       1.0  0.00010  0.66494  0.99116  1.0000
  O   O3        1.0  0.00010  0.56026  0.99889  1.0000
  O   O4        1.0  0.00010  0.56045  0.01900  1.0000
  H   H12       1.0  0.00010  0.66524  0.02669  1.0000
  H   H13       1.0  0.00010  0.89825  0.06552  1.0000
  O   O5        1.0  0.00010  0.94440  0.08297  1.0000
  O   O6        1.0  0.00010  0.06490  0.08297  1.0000
  H   H14       1.0  0.00010  0.11128  0.06553  1.0000
  H   H15       1.0  0.00010  0.34405  0.99123  1.0000
  O   O7        1.0  0.00010  0.44873  0.99891  1.0000
  O   O8        1.0  0.00010  0.44877  0.01898  1.0000
  H   H16       1.0  0.00010  0.34415  0.02671  1.0000
  Ni  Ni1       1.0  0.00010  0.00464  0.00896  1.0000
  C   C49       1.0  0.94231  0.00010  0.47012  1.0000
  C   C50       1.0  0.97352  0.00010  0.46126  1.0000
  C   C51       1.0  0.03537  0.00010  0.46128  1.0000
  C   C52       1.0  0.06655  0.00010  0.47015  1.0000
  C   C53       1.0  0.03423  0.00010  0.47876  1.0000
  C   C54       1.0  0.97459  0.00010  0.47874  1.0000
  C   C55       1.0  0.95588  0.00010  0.48842  1.0000
  N   N9        1.0  0.00452  0.00010  0.49453  1.0000
  C   C56       1.0  0.05307  0.00010  0.48845  1.0000
  N   N10       1.0  0.11084  0.00010  0.49129  1.0000
  C   C57       1.0  0.12788  0.00010  0.50091  1.0000
  N   N11       1.0  0.09137  0.00010  0.50900  1.0000
  C   C58       1.0  0.12796  0.00010  0.51710  1.0000
  C   C59       1.0  0.18602  0.00010  0.51397  1.0000
  C   C60       1.0  0.18602  0.00010  0.50404  1.0000
  N   N12       1.0  0.00496  0.00010  0.52340  1.0000
  C   C61       1.0  0.05353  0.00010  0.52950  1.0000
  N   N13       1.0  0.11110  0.00010  0.52669  1.0000
  C   C62       1.0  0.03479  0.00010  0.53918  1.0000
  C   C63       1.0  0.97522  0.00010  0.53917  1.0000
  C   C64       1.0  0.95641  0.00010  0.52949  1.0000
  C   C65       1.0  0.23768  0.00010  0.49866  1.0000
  C   C66       1.0  0.29083  0.00010  0.50384  1.0000
  C   C67       1.0  0.29087  0.00010  0.51414  1.0000
  C   C68       1.0  0.23776  0.00010  0.51934  1.0000
  C   C69       1.0  0.94293  0.00010  0.54778  1.0000
  C   C70       1.0  0.97402  0.00010  0.55665  1.0000
  C   C71       1.0  0.03581  0.00010  0.55665  1.0000
  C   C72       1.0  0.06701  0.00010  0.54780  1.0000
  N   N14       1.0  0.91808  0.00010  0.50893  1.0000
  C   C73       1.0  0.88163  0.00010  0.51702  1.0000
  N   N15       1.0  0.89872  0.00010  0.52665  1.0000
  C   C74       1.0  0.82346  0.00010  0.51389  1.0000
  C   C75       1.0  0.82340  0.00010  0.50395  1.0000
  C   C76       1.0  0.88146  0.00010  0.50083  1.0000
  C   C77       1.0  0.77163  0.00010  0.49858  1.0000
  C   C78       1.0  0.71848  0.00010  0.50378  1.0000
  C   C79       1.0  0.71859  0.00010  0.51409  1.0000
  C   C80       1.0  0.77183  0.00010  0.51927  1.0000
  N   N16       1.0  0.89828  0.00010  0.49122  1.0000
  H   H17       1.0  0.89704  0.00010  0.47021  1.0000
  H   H18       1.0  0.11186  0.00010  0.47027  1.0000
  H   H19       1.0  0.23700  0.00010  0.49112  1.0000
  H   H20       1.0  0.23716  0.00010  0.52688  1.0000
  H   H21       1.0  0.89768  0.00010  0.54768  1.0000
  H   H22       1.0  0.11228  0.00010  0.54769  1.0000
  H   H23       1.0  0.77220  0.00010  0.49103  1.0000
  H   H24       1.0  0.77254  0.00010  0.52682  1.0000
  C   C81       1.0  0.66526  0.00010  0.49872  1.0000
  C   C82       1.0  0.61224  0.00010  0.50386  1.0000
  C   C83       1.0  0.61234  0.00010  0.51405  1.0000
  C   C84       1.0  0.66545  0.00010  0.51916  1.0000
  C   C85       1.0  0.94318  0.00010  0.45238  1.0000
  C   C86       1.0  0.97395  0.00010  0.44354  1.0000
  C   C87       1.0  0.03509  0.00010  0.44356  1.0000
  C   C88       1.0  0.06578  0.00010  0.45241  1.0000
  C   C89       1.0  0.34402  0.00010  0.49877  1.0000
  C   C90       1.0  0.39708  0.00010  0.50388  1.0000
  C   C91       1.0  0.39709  0.00010  0.51407  1.0000
  C   C92       1.0  0.34407  0.00010  0.51919  1.0000
  C   C93       1.0  0.94358  0.00010  0.56551  1.0000
  C   C94       1.0  0.97421  0.00010  0.57435  1.0000
  C   C95       1.0  0.03529  0.00010  0.57436  1.0000
  C   C96       1.0  0.06605  0.00010  0.56552  1.0000
  H   H25       1.0  0.66509  0.00010  0.49118  1.0000
  O   O9        1.0  0.56044  0.00010  0.49891  1.0000
  O   O10       1.0  0.56061  0.00010  0.51901  1.0000
  H   H26       1.0  0.66537  0.00010  0.52671  1.0000
  H   H27       1.0  0.89790  0.00010  0.45235  1.0000
  O   O11       1.0  0.94427  0.00010  0.43491  1.0000
  O   O12       1.0  0.06490  0.00010  0.43494  1.0000
  H   H28       1.0  0.11106  0.00010  0.45240  1.0000
  H   H29       1.0  0.34414  0.00010  0.49123  1.0000
  O   O13       1.0  0.44884  0.00010  0.49892  1.0000
  O   O14       1.0  0.44885  0.00010  0.51900  1.0000
  H   H30       1.0  0.34420  0.00010  0.52673  1.0000
  H   H31       1.0  0.89838  0.00010  0.56553  1.0000
  O   O15       1.0  0.94448  0.00010  0.58298  1.0000
  O   O16       1.0  0.06493  0.00010  0.58298  1.0000
  H   H32       1.0  0.11130  0.00010  0.56554  1.0000
  Ni  Ni2       1.0  0.00473  0.00010  0.50896  1.0000
  C   C97       1.0  0.00390  0.94239  0.13678  1.0000
  C   C98       1.0  0.00378  0.97360  0.12793  1.0000
  C   C99       1.0  0.00378  0.03545  0.12795  1.0000
  C   C100      1.0  0.00390  0.06663  0.13682  1.0000
  C   C101      1.0  0.00401  0.03431  0.14542  1.0000
  C   C102      1.0  0.00401  0.97467  0.14541  1.0000
  C   C103      1.0  0.00414  0.95596  0.15508  1.0000
  N   N17       1.0  0.00422  0.00460  0.16119  1.0000
  C   C104      1.0  0.00414  0.05314  0.15511  1.0000
  N   N18       1.0  0.00418  0.11092  0.15796  1.0000
  C   C105      1.0  0.00431  0.12795  0.16757  1.0000
  N   N19       1.0  0.00442  0.09144  0.17566  1.0000
  C   C106      1.0  0.00453  0.12803  0.18376  1.0000
  C   C107      1.0  0.00449  0.18609  0.18064  1.0000
  C   C108      1.0  0.00435  0.18609  0.17071  1.0000
  N   N20       1.0  0.00461  0.00503  0.19007  1.0000
  C   C109      1.0  0.00469  0.05360  0.19616  1.0000
  N   N21       1.0  0.00466  0.11117  0.19336  1.0000
  C   C110      1.0  0.00482  0.03486  0.20585  1.0000
  C   C111      1.0  0.00482  0.97529  0.20584  1.0000
  C   C112      1.0  0.00469  0.95649  0.19615  1.0000
  C   C113      1.0  0.00428  0.23775  0.16533  1.0000
  C   C114      1.0  0.00435  0.29090  0.17051  1.0000
  C   C115      1.0  0.00449  0.29094  0.18080  1.0000
  C   C116      1.0  0.00456  0.23782  0.18601  1.0000
  C   C117      1.0  0.00494  0.94300  0.21445  1.0000
  C   C118      1.0  0.00506  0.97409  0.22332  1.0000
  C   C119      1.0  0.00506  0.03587  0.22332  1.0000
  C   C120      1.0  0.00494  0.06708  0.21446  1.0000
  N   N22       1.0  0.00442  0.91815  0.17560  1.0000
  C   C121      1.0  0.00453  0.88171  0.18369  1.0000
  N   N23       1.0  0.00466  0.89880  0.19331  1.0000
  C   C122      1.0  0.00448  0.82353  0.18055  1.0000
  C   C123      1.0  0.00435  0.82348  0.17062  1.0000
  C   C124      1.0  0.00431  0.88154  0.16749  1.0000
  C   C125      1.0  0.00428  0.77171  0.16525  1.0000
  C   C126      1.0  0.00435  0.71857  0.17045  1.0000
  C   C127      1.0  0.00449  0.71867  0.18075  1.0000
  C   C128      1.0  0.00456  0.77191  0.18594  1.0000
  N   N24       1.0  0.00418  0.89836  0.15788  1.0000
  H   H33       1.0  0.00390  0.89712  0.13687  1.0000
  H   H34       1.0  0.00390  0.11194  0.13693  1.0000
  H   H35       1.0  0.00418  0.23707  0.15778  1.0000
  H   H36       1.0  0.00466  0.23722  0.19355  1.0000
  H   H37       1.0  0.00494  0.89775  0.21434  1.0000
  H   H38       1.0  0.00494  0.11234  0.21436  1.0000
  H   H39       1.0  0.00418  0.77228  0.15770  1.0000
  H   H40       1.0  0.00466  0.77262  0.19349  1.0000
  C   C129      1.0  0.00428  0.66534  0.16539  1.0000
  C   C130      1.0  0.00435  0.61233  0.17052  1.0000
  C   C131      1.0  0.00449  0.61242  0.18071  1.0000
  C   C132      1.0  0.00456  0.66553  0.18582  1.0000
  C   C133      1.0  0.00366  0.94327  0.11904  1.0000
  C   C134      1.0  0.00354  0.97403  0.11021  1.0000
  C   C135      1.0  0.00354  0.03517  0.11022  1.0000
  C   C136      1.0  0.00366  0.06586  0.11908  1.0000
  C   C137      1.0  0.00428  0.34409  0.16543  1.0000
  C   C138      1.0  0.00435  0.39715  0.17054  1.0000
  C   C139      1.0  0.00449  0.39715  0.18073  1.0000
  C   C140      1.0  0.00456  0.34413  0.18586  1.0000
  C   C141      1.0  0.00518  0.94365  0.23218  1.0000
  C   C142      1.0  0.00530  0.97427  0.24102  1.0000
  C   C143      1.0  0.00530  0.03535  0.24102  1.0000
  C   C144      1.0  0.00518  0.06612  0.23219  1.0000
  H   H41       1.0  0.00418  0.66518  0.15784  1.0000
  O   O17       1.0  0.00428  0.56053  0.16557  1.0000
  O   O18       1.0  0.00455  0.56069  0.18568  1.0000
  H   H42       1.0  0.00466  0.66545  0.19338  1.0000
  H   H43       1.0  0.00366  0.89798  0.11902  1.0000
  O   O19       1.0  0.00342  0.94435  0.10157  1.0000
  O   O20       1.0  0.00342  0.06498  0.10160  1.0000
  H   H44       1.0  0.00366  0.11114  0.11906  1.0000
  H   H45       1.0  0.00418  0.34421  0.15789  1.0000
  O   O21       1.0  0.00428  0.44890  0.16558  1.0000
  O   O22       1.0  0.00455  0.44891  0.18567  1.0000
  H   H46       1.0  0.00466  0.34427  0.19340  1.0000
  H   H47       1.0  0.00518  0.89845  0.23220  1.0000
  O   O23       1.0  0.00541  0.94454  0.24964  1.0000
  O   O24       1.0  0.00541  0.06499  0.24965  1.0000
  H   H48       1.0  0.00518  0.11137  0.23221  1.0000
  Ni  Ni3       1.0  0.00442  0.00481  0.17563  1.0000
  C   C145      1.0  0.94242  0.00391  0.63679  1.0000
  C   C146      1.0  0.97363  0.00380  0.62793  1.0000
  C   C147      1.0  0.03548  0.00380  0.62795  1.0000
  C   C148      1.0  0.06666  0.00392  0.63682  1.0000
  C   C149      1.0  0.03434  0.00403  0.64543  1.0000
  C   C150      1.0  0.97470  0.00403  0.64541  1.0000
  C   C151      1.0  0.95599  0.00416  0.65509  1.0000
  N   N25       1.0  0.00463  0.00425  0.66120  1.0000
  C   C152      1.0  0.05317  0.00416  0.65512  1.0000
  N   N26       1.0  0.11095  0.00420  0.65797  1.0000
  C   C153      1.0  0.12798  0.00433  0.66758  1.0000
  N   N27       1.0  0.09147  0.00444  0.67567  1.0000
  C   C154      1.0  0.12806  0.00455  0.68377  1.0000
  C   C155      1.0  0.18612  0.00451  0.68065  1.0000
  C   C156      1.0  0.18613  0.00437  0.67072  1.0000
  N   N28       1.0  0.00506  0.00464  0.69008  1.0000
  C   C157      1.0  0.05363  0.00472  0.69617  1.0000
  N   N29       1.0  0.11120  0.00468  0.69337  1.0000
  C   C158      1.0  0.03489  0.00485  0.70585  1.0000
  C   C159      1.0  0.97532  0.00485  0.70585  1.0000
  C   C160      1.0  0.95651  0.00472  0.69616  1.0000
  C   C161      1.0  0.23778  0.00430  0.66534  1.0000
  C   C162      1.0  0.29093  0.00437  0.67051  1.0000
  C   C163      1.0  0.29097  0.00451  0.68081  1.0000
  C   C164      1.0  0.23786  0.00458  0.68602  1.0000
  C   C165      1.0  0.94303  0.00497  0.71446  1.0000
  C   C166      1.0  0.97412  0.00508  0.72332  1.0000
  C   C167      1.0  0.03590  0.00508  0.72332  1.0000
  C   C168      1.0  0.06711  0.00497  0.71447  1.0000
  N   N30       1.0  0.91818  0.00444  0.67560  1.0000
  C   C169      1.0  0.88173  0.00455  0.68369  1.0000
  N   N31       1.0  0.89882  0.00468  0.69332  1.0000
  C   C170      1.0  0.82356  0.00451  0.68056  1.0000
  C   C171      1.0  0.82350  0.00437  0.67062  1.0000
  C   C172      1.0  0.88156  0.00433  0.66750  1.0000
  C   C173      1.0  0.77174  0.00430  0.66525  1.0000
  C   C174      1.0  0.71859  0.00437  0.67045  1.0000
  C   C175      1.0  0.71869  0.00451  0.68076  1.0000
  C   C176      1.0  0.77194  0.00458  0.68595  1.0000
  N   N32       1.0  0.89839  0.00420  0.65789  1.0000
  H   H49       1.0  0.89715  0.00392  0.63688  1.0000
  H   H50       1.0  0.11197  0.00392  0.63694  1.0000
  H   H51       1.0  0.23710  0.00420  0.65779  1.0000
  H   H52       1.0  0.23726  0.00468  0.69356  1.0000
  H   H53       1.0  0.89778  0.00496  0.71435  1.0000
  H   H54       1.0  0.11238  0.00496  0.71437  1.0000
  H   H55       1.0  0.77230  0.00420  0.65770  1.0000
  H   H56       1.0  0.77265  0.00468  0.69350  1.0000
  C   C177      1.0  0.66536  0.00430  0.66540  1.0000
  C   C178      1.0  0.61235  0.00437  0.67053  1.0000
  C   C179      1.0  0.61244  0.00451  0.68072  1.0000
  C   C180      1.0  0.66555  0.00458  0.68583  1.0000
  C   C181      1.0  0.94329  0.00368  0.61905  1.0000
  C   C182      1.0  0.97406  0.00356  0.61022  1.0000
  C   C183      1.0  0.03520  0.00356  0.61023  1.0000
  C   C184      1.0  0.06589  0.00368  0.61908  1.0000
  C   C185      1.0  0.34413  0.00430  0.66544  1.0000
  C   C186      1.0  0.39718  0.00437  0.67055  1.0000
  C   C187      1.0  0.39719  0.00451  0.68074  1.0000
  C   C188      1.0  0.34417  0.00458  0.68586  1.0000
  C   C189      1.0  0.94368  0.00520  0.73219  1.0000
  C   C190      1.0  0.97430  0.00532  0.74102  1.0000
  C   C191      1.0  0.03538  0.00532  0.74103  1.0000
  C   C192      1.0  0.06615  0.00520  0.73219  1.0000
  H   H57       1.0  0.66520  0.00420  0.65785  1.0000
  O   O25       1.0  0.56055  0.00430  0.66558  1.0000
  O   O26       1.0  0.56071  0.00458  0.68569  1.0000
  H   H58       1.0  0.66547  0.00468  0.69338  1.0000
  H   H59       1.0  0.89801  0.00367  0.61902  1.0000
  O   O27       1.0  0.94438  0.00344  0.60158  1.0000
  O   O28       1.0  0.06502  0.00344  0.60161  1.0000
  H   H60       1.0  0.11117  0.00368  0.61907  1.0000
  H   H61       1.0  0.34425  0.00420  0.65790  1.0000
  O   O29       1.0  0.44894  0.00430  0.66559  1.0000
  O   O30       1.0  0.44895  0.00458  0.68567  1.0000
  H   H62       1.0  0.34430  0.00468  0.69340  1.0000
  H   H63       1.0  0.89848  0.00520  0.73221  1.0000
  O   O31       1.0  0.94457  0.00544  0.74965  1.0000
  O   O32       1.0  0.06503  0.00544  0.74965  1.0000
  H   H64       1.0  0.11140  0.00521  0.73222  1.0000
  Ni  Ni4       1.0  0.00484  0.00444  0.67564  1.0000
  C   C193      1.0  0.00429  0.06685  0.88113  1.0000
  C   C194      1.0  0.00417  0.03564  0.88998  1.0000
  C   C195      1.0  0.00417  0.97379  0.88996  1.0000
  C   C196      1.0  0.00430  0.94261  0.88109  1.0000
  C   C197      1.0  0.00442  0.97493  0.87249  1.0000
  C   C198      1.0  0.00442  0.03457  0.87251  1.0000
  C   C199      1.0  0.00456  0.05328  0.86283  1.0000
  N   N33       1.0  0.00464  0.00465  0.85672  1.0000
  C   C200      1.0  0.00456  0.95610  0.86280  1.0000
  N   N34       1.0  0.00460  0.89833  0.85995  1.0000
  C   C201      1.0  0.00473  0.88130  0.85034  1.0000
  N   N35       1.0  0.00485  0.91780  0.84225  1.0000
  C   C202      1.0  0.00496  0.88122  0.83415  1.0000
  C   C203      1.0  0.00492  0.82316  0.83727  1.0000
  C   C204      1.0  0.00478  0.82315  0.84720  1.0000
  N   N36       1.0  0.00505  0.00421  0.82784  1.0000
  C   C205      1.0  0.00514  0.95565  0.82175  1.0000
  N   N37       1.0  0.00510  0.89808  0.82455  1.0000
  C   C206      1.0  0.00528  0.97438  0.81206  1.0000
  C   C207      1.0  0.00528  0.03396  0.81207  1.0000
  C   C208      1.0  0.00514  0.05276  0.82176  1.0000
  C   C209      1.0  0.00470  0.77150  0.85258  1.0000
  C   C210      1.0  0.00477  0.71835  0.84740  1.0000
  C   C211      1.0  0.00492  0.71831  0.83711  1.0000
  C   C212      1.0  0.00499  0.77142  0.83190  1.0000
  C   C213      1.0  0.00540  0.06625  0.80346  1.0000
  C   C214      1.0  0.00552  0.03516  0.79460  1.0000
  C   C215      1.0  0.00552  0.97337  0.79460  1.0000
  C   C216      1.0  0.00540  0.94217  0.80345  1.0000
  N   N38       1.0  0.00485  0.09109  0.84231  1.0000
  C   C217      1.0  0.00496  0.12754  0.83422  1.0000
  N   N39       1.0  0.00510  0.11045  0.82460  1.0000
  C   C218      1.0  0.00492  0.18571  0.83736  1.0000
  C   C219      1.0  0.00478  0.18576  0.84729  1.0000
  C   C220      1.0  0.00473  0.12770  0.85042  1.0000
  C   C221      1.0  0.00470  0.23753  0.85267  1.0000
  C   C222      1.0  0.00477  0.29068  0.84747  1.0000
  C   C223      1.0  0.00492  0.29057  0.83716  1.0000
  C   C224      1.0  0.00499  0.23733  0.83197  1.0000
  N   N40       1.0  0.00459  0.11088  0.86003  1.0000
  H   H65       1.0  0.00430  0.11212  0.88104  1.0000
  H   H66       1.0  0.00430  0.89730  0.88098  1.0000
  H   H67       1.0  0.00459  0.77217  0.86013  1.0000
  H   H68       1.0  0.00510  0.77202  0.82436  1.0000
  H   H69       1.0  0.00540  0.11149  0.80357  1.0000
  H   H70       1.0  0.00540  0.89690  0.80355  1.0000
  H   H71       1.0  0.00459  0.23696  0.86021  1.0000
  H   H72       1.0  0.00510  0.23662  0.82442  1.0000
  C   C225      1.0  0.00470  0.34390  0.85252  1.0000
  C   C226      1.0  0.00477  0.39692  0.84739  1.0000
  C   C227      1.0  0.00492  0.39682  0.83720  1.0000
  C   C228      1.0  0.00499  0.34371  0.83209  1.0000
  C   C229      1.0  0.00404  0.06597  0.89887  1.0000
  C   C230      1.0  0.00392  0.03521  0.90770  1.0000
  C   C231      1.0  0.00392  0.97407  0.90769  1.0000
  C   C232      1.0  0.00404  0.94338  0.89883  1.0000
  C   C233      1.0  0.00470  0.66515  0.85248  1.0000
  C   C234      1.0  0.00477  0.61210  0.84737  1.0000
  C   C235      1.0  0.00492  0.61209  0.83718  1.0000
  C   C236      1.0  0.00499  0.66511  0.83206  1.0000
  C   C237      1.0  0.00565  0.06559  0.78573  1.0000
  C   C238      1.0  0.00578  0.03498  0.77690  1.0000
  C   C239      1.0  0.00578  0.97390  0.77689  1.0000
  C   C240      1.0  0.00565  0.94313  0.78573  1.0000
  H   H73       1.0  0.00459  0.34407  0.86007  1.0000
  O   O33       1.0  0.00470  0.44871  0.85234  1.0000
  O   O34       1.0  0.00499  0.44855  0.83223  1.0000
  H   H74       1.0  0.00510  0.34379  0.82453  1.0000
  H   H75       1.0  0.00404  0.11126  0.89889  1.0000
  O   O35       1.0  0.00379  0.06489  0.91634  1.0000
  O   O36       1.0  0.00380  0.94425  0.91631  1.0000
  H   H76       1.0  0.00404  0.89810  0.89885  1.0000
  H   H77       1.0  0.00460  0.66503  0.86002  1.0000
  O   O37       1.0  0.00470  0.56034  0.85233  1.0000
  O   O38       1.0  0.00499  0.56033  0.83224  1.0000
  H   H78       1.0  0.00510  0.66498  0.82451  1.0000
  H   H79       1.0  0.00565  0.11079  0.78571  1.0000
  O   O39       1.0  0.00590  0.06471  0.76827  1.0000
  O   O40       1.0  0.00590  0.94426  0.76827  1.0000
  H   H80       1.0  0.00565  0.89788  0.78570  1.0000
  Ni  Ni5       1.0  0.00485  0.00444  0.84228  1.0000
  C   C241      1.0  0.06685  0.00425  0.38112  1.0000
  C   C242      1.0  0.03565  0.00413  0.38998  1.0000
  C   C243      1.0  0.97379  0.00413  0.38996  1.0000
  C   C244      1.0  0.94262  0.00425  0.38109  1.0000
  C   C245      1.0  0.97493  0.00438  0.37248  1.0000
  C   C246      1.0  0.03457  0.00438  0.37250  1.0000
  C   C247      1.0  0.05328  0.00451  0.36282  1.0000
  N   N41       1.0  0.00465  0.00460  0.35671  1.0000
  C   C248      1.0  0.95610  0.00451  0.36279  1.0000
  N   N42       1.0  0.89832  0.00455  0.35995  1.0000
  C   C249      1.0  0.88129  0.00469  0.35033  1.0000
  N   N43       1.0  0.91780  0.00481  0.34224  1.0000
  C   C250      1.0  0.88121  0.00492  0.33414  1.0000
  C   C251      1.0  0.82315  0.00488  0.33727  1.0000
  C   C252      1.0  0.82314  0.00474  0.34719  1.0000
  N   N44       1.0  0.00421  0.00501  0.32783  1.0000
  C   C253      1.0  0.95564  0.00510  0.32174  1.0000
  N   N45       1.0  0.89807  0.00506  0.32455  1.0000
  C   C254      1.0  0.97437  0.00523  0.31206  1.0000
  C   C255      1.0  0.03395  0.00523  0.31207  1.0000
  C   C256      1.0  0.05275  0.00510  0.32175  1.0000
  C   C257      1.0  0.77149  0.00466  0.35257  1.0000
  C   C258      1.0  0.71834  0.00473  0.34740  1.0000
  C   C259      1.0  0.71830  0.00488  0.33710  1.0000
  C   C260      1.0  0.77141  0.00495  0.33190  1.0000
  C   C261      1.0  0.06624  0.00536  0.30346  1.0000
  C   C262      1.0  0.03515  0.00548  0.29459  1.0000
  C   C263      1.0  0.97336  0.00548  0.29459  1.0000
  C   C264      1.0  0.94215  0.00536  0.30344  1.0000
  N   N46       1.0  0.09109  0.00481  0.34231  1.0000
  C   C265      1.0  0.12754  0.00492  0.33422  1.0000
  N   N47       1.0  0.11044  0.00506  0.32459  1.0000
  C   C266      1.0  0.18571  0.00488  0.33735  1.0000
  C   C267      1.0  0.18577  0.00473  0.34729  1.0000
  C   C268      1.0  0.12771  0.00469  0.35041  1.0000
  C   C269      1.0  0.23754  0.00466  0.35266  1.0000
  C   C270      1.0  0.29068  0.00473  0.34746  1.0000
  C   C271      1.0  0.29058  0.00488  0.33715  1.0000
  C   C272      1.0  0.23733  0.00495  0.33197  1.0000
  N   N48       1.0  0.11088  0.00455  0.36002  1.0000
  H   H81       1.0  0.11212  0.00426  0.38103  1.0000
  H   H82       1.0  0.89731  0.00426  0.38097  1.0000
  H   H83       1.0  0.77217  0.00455  0.36012  1.0000
  H   H84       1.0  0.77201  0.00506  0.32435  1.0000
  H   H85       1.0  0.11149  0.00536  0.30356  1.0000
  H   H86       1.0  0.89689  0.00536  0.30355  1.0000
  H   H87       1.0  0.23697  0.00455  0.36021  1.0000
  H   H88       1.0  0.23662  0.00506  0.32441  1.0000
  C   C273      1.0  0.34391  0.00466  0.35252  1.0000
  C   C274      1.0  0.39692  0.00473  0.34738  1.0000
  C   C275      1.0  0.39683  0.00488  0.33719  1.0000
  C   C276      1.0  0.34372  0.00495  0.33208  1.0000
  C   C277      1.0  0.06598  0.00400  0.39886  1.0000
  C   C278      1.0  0.03522  0.00388  0.40769  1.0000
  C   C279      1.0  0.97408  0.00388  0.40768  1.0000
  C   C280      1.0  0.94339  0.00400  0.39883  1.0000
  C   C281      1.0  0.66514  0.00466  0.35247  1.0000
  C   C282      1.0  0.61209  0.00473  0.34736  1.0000
  C   C283      1.0  0.61208  0.00488  0.33717  1.0000
  C   C284      1.0  0.66510  0.00495  0.33205  1.0000
  C   C285      1.0  0.06558  0.00561  0.28573  1.0000
  C   C286      1.0  0.03496  0.00573  0.27689  1.0000
  C   C287      1.0  0.97388  0.00573  0.27688  1.0000
  C   C288      1.0  0.94312  0.00561  0.28572  1.0000
  H   H89       1.0  0.34407  0.00455  0.36006  1.0000
  O   O41       1.0  0.44872  0.00466  0.35233  1.0000
  O   O42       1.0  0.44856  0.00495  0.33223  1.0000
  H   H90       1.0  0.34380  0.00506  0.32453  1.0000
  H   H91       1.0  0.11127  0.00400  0.39889  1.0000
  O   O43       1.0  0.06490  0.00375  0.41633  1.0000
  O   O44       1.0  0.94426  0.00375  0.41630  1.0000
  H   H92       1.0  0.89810  0.00400  0.39884  1.0000
  H   H93       1.0  0.66503  0.00455  0.36001  1.0000
  O   O45       1.0  0.56033  0.00466  0.35232  1.0000
  O   O46       1.0  0.56032  0.00495  0.33224  1.0000
  H   H94       1.0  0.66496  0.00506  0.32451  1.0000
  H   H95       1.0  0.11078  0.00561  0.28571  1.0000
  O   O47       1.0  0.06469  0.00586  0.26826  1.0000
  O   O48       1.0  0.94424  0.00586  0.26826  1.0000
  H   H96       1.0  0.89786  0.00561  0.28570  1.0000
  Ni  Ni6       1.0  0.00443  0.00481  0.34227  1.0000
  Zn  Zn1       1.0  0.00494  0.00531  0.25895  1.0000
  Zn  Zn2       1.0  0.00534  0.00497  0.75896  1.0000
  Cu  Cu1       1.0  0.00442  0.50476  0.17563  1.0000
  Cu  Cu2       1.0  0.50479  0.00444  0.67563  1.0000
  Cu  Cu3       1.0  0.00485  0.50448  0.84228  1.0000
  Cu  Cu4       1.0  0.50448  0.00481  0.34228  1.0000
  Cu  Cu5       1.0  0.00168  0.00467  0.09228  1.0000
  Cu  Cu6       1.0  0.00469  0.00178  0.59229  1.0000
  Cu  Cu7       1.0  0.00203  0.00457  0.92563  1.0000
  Cu  Cu8       1.0  0.00458  0.00202  0.42562  1.0000
  Cu  Cu9       1.0  0.00010  0.50456  0.00894  1.0000
  Cu  Cu10      1.0  0.50469  0.00010  0.50896  1.0000
