data_image0
_chemical_formula_structural       C7NCNCNC3NCNC11NCNC7NH8C16HO2H2O2H2O2H2O2HNiC7NCNCNC3NCNC11NCNC7NH8C16HO2H2O2H2O2H2O2HNiC7NCNCNC3NCNC11NCNC7NH8C16HO2H2O2H2O2H2O2HNiC7NCNCNC3NCNC11NCNC7NH8C16HO2H2O2H2O2H2O2HNiC7NCNCNC3NCNC11NCNC7NH8C16HO2H2O2H2O2H2O2HNiC7NCNCNC3NCNC11NCNC7NH8C16HO2H2O2H2O2H2O2HNiC7NCNCNC3NCNC11NCNC7NH8C16HO2H2O2H2O2H2O2HNiC7NCNCNC3NCNC11NCNC7NH8C16HO2H2O2H2O2H2O2HNiZn2Cu14
_chemical_formula_sum              "C384 N64 H128 O64 Ni8 Zn2 Cu14"
_cell_length_a       25.0715
_cell_length_b       25.0731
_cell_length_c       200.577
_cell_angle_alpha    90.2955
_cell_angle_beta     90.2983
_cell_angle_gamma    89.985

_space_group_name_H-M_alt    "P 1"
_space_group_IT_number       1

loop_
  _space_group_symop_operation_xyz
  'x, y, z'

loop_
  _atom_site_type_symbol
  _atom_site_label
  _atom_site_symmetry_multiplicity
  _atom_site_fract_x
  _atom_site_fract_y
  _atom_site_fract_z
  _atom_site_occupancy
  C   C1        1.0  0.06749  0.00010  0.09163  1.0000
  C   C2        1.0  0.03629  0.00010  0.09827  1.0000
  C   C3        1.0  0.97444  0.00010  0.09826  1.0000
  C   C4        1.0  0.94325  0.00010  0.09161  1.0000
  C   C5        1.0  0.97556  0.00010  0.08515  1.0000
  C   C6        1.0  0.03520  0.00010  0.08516  1.0000
  C   C7        1.0  0.05389  0.00010  0.07791  1.0000
  N   N1        1.0  0.00525  0.00010  0.07332  1.0000
  C   C8        1.0  0.95671  0.00010  0.07788  1.0000
  N   N2        1.0  0.89893  0.00010  0.07575  1.0000
  C   C9        1.0  0.88189  0.00010  0.06854  1.0000
  N   N3        1.0  0.91838  0.00010  0.06247  1.0000
  C   C10       1.0  0.88178  0.00010  0.05640  1.0000
  C   C11       1.0  0.82373  0.00010  0.05874  1.0000
  C   C12       1.0  0.82374  0.00010  0.06618  1.0000
  N   N4        1.0  0.00477  0.99990  0.05166  1.0000
  C   C13       1.0  0.95620  0.99990  0.04709  1.0000
  N   N5        1.0  0.89863  0.99990  0.04920  1.0000
  C   C14       1.0  0.97492  0.99990  0.03983  1.0000
  C   C15       1.0  0.03449  0.99990  0.03984  1.0000
  C   C16       1.0  0.05331  0.99990  0.04710  1.0000
  C   C17       1.0  0.77209  0.00010  0.07022  1.0000
  C   C18       1.0  0.71893  0.00010  0.06634  1.0000
  C   C19       1.0  0.71888  0.00010  0.05862  1.0000
  C   C20       1.0  0.77198  0.99990  0.05471  1.0000
  C   C21       1.0  0.06677  0.99990  0.03338  1.0000
  C   C22       1.0  0.03566  0.99990  0.02673  1.0000
  C   C23       1.0  0.97388  0.99990  0.02673  1.0000
  C   C24       1.0  0.94269  0.99990  0.03337  1.0000
  N   N6        1.0  0.09167  0.00010  0.06252  1.0000
  C   C25       1.0  0.12811  0.00010  0.05645  1.0000
  N   N7        1.0  0.11100  0.99990  0.04923  1.0000
  C   C26       1.0  0.18628  0.00010  0.05880  1.0000
  C   C27       1.0  0.18635  0.00010  0.06625  1.0000
  C   C28       1.0  0.12830  0.00010  0.06860  1.0000
  C   C29       1.0  0.23813  0.00010  0.07028  1.0000
  C   C30       1.0  0.29127  0.00010  0.06638  1.0000
  C   C31       1.0  0.29115  0.00010  0.05866  1.0000
  C   C32       1.0  0.23790  0.99990  0.05476  1.0000
  N   N8        1.0  0.11149  0.00010  0.07581  1.0000
  H   H1        1.0  0.11276  0.00010  0.09156  1.0000
  H   H2        1.0  0.89794  0.00010  0.09152  1.0000
  H   H3        1.0  0.77278  0.00010  0.07588  1.0000
  H   H4        1.0  0.77257  0.99990  0.04905  1.0000
  H   H5        1.0  0.11202  0.99990  0.03346  1.0000
  H   H6        1.0  0.89742  0.99990  0.03345  1.0000
  H   H7        1.0  0.23757  0.00010  0.07595  1.0000
  H   H8        1.0  0.23718  0.99990  0.04910  1.0000
  C   C33       1.0  0.34450  0.00010  0.07018  1.0000
  C   C34       1.0  0.39751  0.00010  0.06633  1.0000
  C   C35       1.0  0.39740  0.00010  0.05868  1.0000
  C   C36       1.0  0.34428  0.99990  0.05485  1.0000
  C   C37       1.0  0.06664  0.00010  0.10494  1.0000
  C   C38       1.0  0.03589  0.00010  0.11156  1.0000
  C   C39       1.0  0.97475  0.00010  0.11155  1.0000
  C   C40       1.0  0.94405  0.00010  0.10491  1.0000
  C   C41       1.0  0.66575  0.00010  0.07014  1.0000
  C   C42       1.0  0.61268  0.00010  0.06631  1.0000
  C   C43       1.0  0.61266  0.00010  0.05867  1.0000
  C   C44       1.0  0.66568  0.99990  0.05483  1.0000
  C   C45       1.0  0.06609  0.99990  0.02008  1.0000
  C   C46       1.0  0.03546  0.99990  0.01345  1.0000
  C   C47       1.0  0.97438  0.99990  0.01345  1.0000
  C   C48       1.0  0.94363  0.99990  0.02008  1.0000
  H   H9        1.0  0.34468  0.00010  0.07584  1.0000
  O   O1        1.0  0.44931  0.00010  0.07004  1.0000
  O   O2        1.0  0.44912  0.99990  0.05496  1.0000
  H   H10       1.0  0.34435  0.99990  0.04918  1.0000
  H   H11       1.0  0.11193  0.00010  0.10496  1.0000
  O   O3        1.0  0.06558  0.00010  0.11804  1.0000
  O   O4        1.0  0.94495  0.00010  0.11802  1.0000
  H   H12       1.0  0.89876  0.00010  0.10492  1.0000
  H   H13       1.0  0.66564  0.00010  0.07580  1.0000
  O   O5        1.0  0.56093  0.00010  0.07003  1.0000
  O   O6        1.0  0.56089  0.99990  0.05497  1.0000
  H   H14       1.0  0.66553  0.99990  0.04917  1.0000
  H   H15       1.0  0.11129  0.99990  0.02007  1.0000
  O   O7        1.0  0.06517  0.99990  0.00698  1.0000
  O   O8        1.0  0.94472  0.99990  0.00698  1.0000
  H   H16       1.0  0.89837  0.99990  0.02006  1.0000
  Ni  Ni1       1.0  0.00502  0.00010  0.06249  1.0000
  C   C49       1.0  0.99990  0.77195  0.55471  1.0000
  C   C50       1.0  0.00010  0.71884  0.55861  1.0000
  C   C51       1.0  0.00010  0.71898  0.56634  1.0000
  C   C52       1.0  0.00010  0.77220  0.57024  1.0000
  C   C53       1.0  0.00010  0.82383  0.56620  1.0000
  C   C54       1.0  0.00010  0.82371  0.55874  1.0000
  C   C55       1.0  0.00010  0.88177  0.55640  1.0000
  N   N9        1.0  0.00010  0.91845  0.56248  1.0000
  C   C56       1.0  0.00010  0.88197  0.56855  1.0000
  N   N10       1.0  0.00010  0.89907  0.57577  1.0000
  C   C57       1.0  0.00010  0.95676  0.57790  1.0000
  N   N11       1.0  0.00010  0.00529  0.57333  1.0000
  C   C58       1.0  0.00010  0.05390  0.57791  1.0000
  C   C59       1.0  0.00010  0.03517  0.58516  1.0000
  C   C60       1.0  0.00010  0.97560  0.58517  1.0000
  N   N12       1.0  0.00010  0.09171  0.56253  1.0000
  C   C61       1.0  0.00010  0.12828  0.56860  1.0000
  N   N13       1.0  0.00010  0.11147  0.57580  1.0000
  C   C62       1.0  0.00010  0.18637  0.56626  1.0000
  C   C63       1.0  0.00010  0.18631  0.55881  1.0000
  C   C64       1.0  0.00010  0.12819  0.55646  1.0000
  C   C65       1.0  0.00010  0.94333  0.59162  1.0000
  C   C66       1.0  0.00010  0.97441  0.59827  1.0000
  C   C67       1.0  0.00010  0.03618  0.59827  1.0000
  C   C68       1.0  0.00010  0.06740  0.59163  1.0000
  C   C69       1.0  0.99990  0.23796  0.55478  1.0000
  C   C70       1.0  0.00010  0.29116  0.55866  1.0000
  C   C71       1.0  0.00010  0.29119  0.56639  1.0000
  C   C72       1.0  0.00010  0.23808  0.57029  1.0000
  N   N14       1.0  0.99990  0.00485  0.55167  1.0000
  C   C73       1.0  0.99990  0.05337  0.54712  1.0000
  N   N15       1.0  0.99990  0.11112  0.54925  1.0000
  C   C74       1.0  0.99990  0.03456  0.53985  1.0000
  C   C75       1.0  0.99990  0.97494  0.53984  1.0000
  C   C76       1.0  0.99990  0.95621  0.54710  1.0000
  C   C77       1.0  0.99990  0.94269  0.53337  1.0000
  C   C78       1.0  0.99990  0.97388  0.52673  1.0000
  C   C79       1.0  0.99990  0.03570  0.52674  1.0000
  C   C80       1.0  0.99990  0.06685  0.53339  1.0000
  N   N16       1.0  0.99990  0.89856  0.54920  1.0000
  H   H17       1.0  0.99990  0.77251  0.54905  1.0000
  H   H18       1.0  0.00010  0.77292  0.57590  1.0000
  H   H19       1.0  0.00010  0.89806  0.59154  1.0000
  H   H20       1.0  0.00010  0.11265  0.59156  1.0000
  H   H21       1.0  0.99990  0.23729  0.54912  1.0000
  H   H22       1.0  0.00010  0.23747  0.57594  1.0000
  H   H23       1.0  0.99990  0.89741  0.53344  1.0000
  H   H24       1.0  0.99990  0.11216  0.53348  1.0000
  C   C81       1.0  0.99990  0.94352  0.52007  1.0000
  C   C82       1.0  0.99990  0.97430  0.51345  1.0000
  C   C83       1.0  0.99990  0.03545  0.51346  1.0000
  C   C84       1.0  0.99990  0.06613  0.52010  1.0000
  C   C85       1.0  0.99990  0.66554  0.55482  1.0000
  C   C86       1.0  0.00010  0.61253  0.55866  1.0000
  C   C87       1.0  0.00010  0.61265  0.56631  1.0000
  C   C88       1.0  0.00010  0.66577  0.57014  1.0000
  C   C89       1.0  0.00010  0.94398  0.60492  1.0000
  C   C90       1.0  0.00010  0.97466  0.61155  1.0000
  C   C91       1.0  0.00010  0.03579  0.61155  1.0000
  C   C92       1.0  0.00010  0.06652  0.60492  1.0000
  C   C93       1.0  0.99990  0.34434  0.55486  1.0000
  C   C94       1.0  0.00010  0.39736  0.55868  1.0000
  C   C95       1.0  0.00010  0.39743  0.56632  1.0000
  C   C96       1.0  0.00010  0.34442  0.57017  1.0000
  H   H25       1.0  0.99990  0.89825  0.52005  1.0000
  O   O9        1.0  0.99990  0.94460  0.50697  1.0000
  O   O10       1.0  0.99990  0.06523  0.50699  1.0000
  H   H26       1.0  0.99990  0.11145  0.52008  1.0000
  H   H27       1.0  0.99990  0.66536  0.54916  1.0000
  O   O11       1.0  0.99990  0.56070  0.55495  1.0000
  O   O12       1.0  0.00010  0.56091  0.57003  1.0000
  H   H28       1.0  0.00010  0.66570  0.57580  1.0000
  H   H29       1.0  0.00010  0.89874  0.60493  1.0000
  O   O13       1.0  0.00101  0.94491  0.61802  1.0000
  O   O14       1.0  0.00101  0.06541  0.61802  1.0000
  H   H30       1.0  0.00010  0.11176  0.60494  1.0000
  H   H31       1.0  0.99990  0.34444  0.54921  1.0000
  O   O15       1.0  0.99990  0.44911  0.55497  1.0000
  O   O16       1.0  0.00010  0.44918  0.57002  1.0000
  H   H32       1.0  0.00010  0.34457  0.57582  1.0000
  Ni  Ni2       1.0  0.00010  0.00507  0.56251  1.0000
  C   C97       1.0  0.06725  0.99990  0.96663  1.0000
  C   C98       1.0  0.03605  0.99990  0.97327  1.0000
  C   C99       1.0  0.97420  0.99990  0.97325  1.0000
  C   C100      1.0  0.94301  0.99990  0.96660  1.0000
  C   C101      1.0  0.97532  0.99990  0.96015  1.0000
  C   C102      1.0  0.03495  0.99990  0.96016  1.0000
  C   C103      1.0  0.05365  0.99990  0.95290  1.0000
  N   N17       1.0  0.00501  0.00010  0.94832  1.0000
  C   C104      1.0  0.95647  0.99990  0.95288  1.0000
  N   N18       1.0  0.89869  0.99990  0.95074  1.0000
  C   C105      1.0  0.88164  0.00010  0.94353  1.0000
  N   N19       1.0  0.91814  0.00010  0.93746  1.0000
  C   C106      1.0  0.88154  0.00010  0.93139  1.0000
  C   C107      1.0  0.82349  0.00010  0.93373  1.0000
  C   C108      1.0  0.82349  0.00010  0.94118  1.0000
  N   N20       1.0  0.00453  0.00010  0.92666  1.0000
  C   C109      1.0  0.95595  0.00010  0.92209  1.0000
  N   N21       1.0  0.89839  0.00010  0.92419  1.0000
  C   C110      1.0  0.97467  0.00010  0.91483  1.0000
  C   C111      1.0  0.03425  0.00010  0.91483  1.0000
  C   C112      1.0  0.05307  0.00010  0.92210  1.0000
  C   C113      1.0  0.77185  0.00010  0.94521  1.0000
  C   C114      1.0  0.71869  0.00010  0.94133  1.0000
  C   C115      1.0  0.71863  0.00010  0.93361  1.0000
  C   C116      1.0  0.77174  0.00010  0.92971  1.0000
  C   C117      1.0  0.06653  0.00100  0.90837  1.0000
  C   C118      1.0  0.03542  0.00116  0.90172  1.0000
  C   C119      1.0  0.97364  0.00116  0.90172  1.0000
  C   C120      1.0  0.94244  0.00100  0.90836  1.0000
  N   N22       1.0  0.09143  0.00010  0.93751  1.0000
  C   C121      1.0  0.12787  0.00010  0.93145  1.0000
  N   N23       1.0  0.11076  0.00010  0.92423  1.0000
  C   C122      1.0  0.18604  0.00010  0.93380  1.0000
  C   C123      1.0  0.18611  0.00010  0.94125  1.0000
  C   C124      1.0  0.12806  0.00010  0.94359  1.0000
  C   C125      1.0  0.23789  0.00010  0.94528  1.0000
  C   C126      1.0  0.29103  0.00010  0.94138  1.0000
  C   C127      1.0  0.29091  0.00010  0.93365  1.0000
  C   C128      1.0  0.23766  0.00010  0.92976  1.0000
  N   N24       1.0  0.11125  0.99990  0.95080  1.0000
  H   H33       1.0  0.11251  0.99990  0.96656  1.0000
  H   H34       1.0  0.89770  0.99990  0.96651  1.0000
  H   H35       1.0  0.77254  0.99990  0.95087  1.0000
  H   H36       1.0  0.77233  0.00010  0.92405  1.0000
  H   H37       1.0  0.11177  0.00100  0.90846  1.0000
  H   H38       1.0  0.89718  0.00100  0.90844  1.0000
  H   H39       1.0  0.23733  0.99990  0.95094  1.0000
  H   H40       1.0  0.23694  0.00010  0.92409  1.0000
  C   C129      1.0  0.34426  0.00010  0.94517  1.0000
  C   C130      1.0  0.39727  0.00010  0.94132  1.0000
  C   C131      1.0  0.39716  0.00010  0.93368  1.0000
  C   C132      1.0  0.34404  0.00010  0.92984  1.0000
  C   C133      1.0  0.06640  0.99990  0.97993  1.0000
  C   C134      1.0  0.03564  0.99990  0.98656  1.0000
  C   C135      1.0  0.97450  0.99990  0.98654  1.0000
  C   C136      1.0  0.94381  0.99990  0.97990  1.0000
  C   C137      1.0  0.66550  0.00010  0.94514  1.0000
  C   C138      1.0  0.61244  0.00010  0.94130  1.0000
  C   C139      1.0  0.61242  0.00010  0.93366  1.0000
  C   C140      1.0  0.66543  0.00010  0.92982  1.0000
  C   C141      1.0  0.06585  0.00132  0.89508  1.0000
  C   C142      1.0  0.03522  0.00148  0.88845  1.0000
  C   C143      1.0  0.97414  0.00148  0.88844  1.0000
  C   C144      1.0  0.94339  0.00132  0.89507  1.0000
  H   H41       1.0  0.34443  0.99990  0.95083  1.0000
  O   O17       1.0  0.44907  0.00010  0.94503  1.0000
  O   O18       1.0  0.44888  0.00010  0.92995  1.0000
  H   H42       1.0  0.34411  0.00010  0.92418  1.0000
  H   H43       1.0  0.11168  0.99990  0.97995  1.0000
  O   O19       1.0  0.06534  0.99899  0.99303  1.0000
  O   O20       1.0  0.94470  0.99900  0.99301  1.0000
  H   H44       1.0  0.89852  0.99990  0.97991  1.0000
  H   H45       1.0  0.66539  0.99990  0.95079  1.0000
  O   O21       1.0  0.56069  0.00010  0.94502  1.0000
  O   O22       1.0  0.56065  0.00010  0.92996  1.0000
  H   H46       1.0  0.66529  0.00010  0.92416  1.0000
  H   H47       1.0  0.11105  0.00132  0.89506  1.0000
  O   O23       1.0  0.06493  0.00163  0.88198  1.0000
  O   O24       1.0  0.94448  0.00163  0.88198  1.0000
  H   H48       1.0  0.89813  0.00132  0.89505  1.0000
  Ni  Ni3       1.0  0.00477  0.00010  0.93749  1.0000
  C   C145      1.0  0.00010  0.77178  0.42971  1.0000
  C   C146      1.0  0.00010  0.71867  0.43361  1.0000
  C   C147      1.0  0.00010  0.71880  0.44134  1.0000
  C   C148      1.0  0.99990  0.77203  0.44524  1.0000
  C   C149      1.0  0.00010  0.82365  0.44120  1.0000
  C   C150      1.0  0.00010  0.82354  0.43374  1.0000
  C   C151      1.0  0.00010  0.88160  0.43140  1.0000
  N   N25       1.0  0.00010  0.91828  0.43748  1.0000
  C   C152      1.0  0.99990  0.88180  0.44355  1.0000
  N   N26       1.0  0.99990  0.89889  0.45077  1.0000
  C   C153      1.0  0.99990  0.95658  0.45290  1.0000
  N   N27       1.0  0.99990  0.00512  0.44834  1.0000
  C   C154      1.0  0.99990  0.05372  0.45291  1.0000
  C   C155      1.0  0.99990  0.03500  0.46017  1.0000
  C   C156      1.0  0.99990  0.97543  0.46017  1.0000
  N   N28       1.0  0.00010  0.09153  0.43754  1.0000
  C   C157      1.0  0.99990  0.12811  0.44361  1.0000
  N   N29       1.0  0.99990  0.11130  0.45080  1.0000
  C   C158      1.0  0.00010  0.18620  0.44126  1.0000
  C   C159      1.0  0.00010  0.18614  0.43382  1.0000
  C   C160      1.0  0.00010  0.12802  0.43147  1.0000
  C   C161      1.0  0.99990  0.94316  0.46663  1.0000
  C   C162      1.0  0.99990  0.97423  0.47327  1.0000
  C   C163      1.0  0.99990  0.03601  0.47327  1.0000
  C   C164      1.0  0.99990  0.06722  0.46663  1.0000
  C   C165      1.0  0.00010  0.23779  0.42978  1.0000
  C   C166      1.0  0.00010  0.29099  0.43367  1.0000
  C   C167      1.0  0.00010  0.29102  0.44139  1.0000
  C   C168      1.0  0.99990  0.23791  0.44529  1.0000
  N   N30       1.0  0.00010  0.00467  0.42668  1.0000
  C   C169      1.0  0.00010  0.05320  0.42212  1.0000
  N   N31       1.0  0.00010  0.11094  0.42426  1.0000
  C   C170      1.0  0.00010  0.03439  0.41485  1.0000
  C   C171      1.0  0.00010  0.97477  0.41484  1.0000
  C   C172      1.0  0.00010  0.95604  0.42210  1.0000
  C   C173      1.0  0.00010  0.94252  0.40837  1.0000
  C   C174      1.0  0.00010  0.97370  0.40173  1.0000
  C   C175      1.0  0.00010  0.03553  0.40174  1.0000
  C   C176      1.0  0.00010  0.06668  0.40840  1.0000
  N   N32       1.0  0.00010  0.89838  0.42420  1.0000
  H   H49       1.0  0.00010  0.77233  0.42405  1.0000
  H   H50       1.0  0.99990  0.77274  0.45090  1.0000
  H   H51       1.0  0.99990  0.89788  0.46654  1.0000
  H   H52       1.0  0.99990  0.11248  0.46656  1.0000
  H   H53       1.0  0.00010  0.23712  0.42413  1.0000
  H   H54       1.0  0.99990  0.23730  0.45095  1.0000
  H   H55       1.0  0.00010  0.89723  0.40845  1.0000
  H   H56       1.0  0.00010  0.11198  0.40849  1.0000
  C   C177      1.0  0.00111  0.94335  0.39508  1.0000
  C   C178      1.0  0.00127  0.97413  0.38845  1.0000
  C   C179      1.0  0.00127  0.03527  0.38846  1.0000
  C   C180      1.0  0.00111  0.06595  0.39510  1.0000
  C   C181      1.0  0.00010  0.66537  0.42982  1.0000
  C   C182      1.0  0.00010  0.61236  0.43367  1.0000
  C   C183      1.0  0.00010  0.61247  0.44131  1.0000
  C   C184      1.0  0.99990  0.66560  0.44514  1.0000
  C   C185      1.0  0.99990  0.94381  0.47992  1.0000
  C   C186      1.0  0.99893  0.97449  0.48655  1.0000
  C   C187      1.0  0.99893  0.03562  0.48655  1.0000
  C   C188      1.0  0.99990  0.06634  0.47992  1.0000
  C   C189      1.0  0.00010  0.34417  0.42986  1.0000
  C   C190      1.0  0.00010  0.39719  0.43369  1.0000
  C   C191      1.0  0.00010  0.39725  0.44132  1.0000
  C   C192      1.0  0.99990  0.34424  0.44517  1.0000
  H   H57       1.0  0.00111  0.89808  0.39506  1.0000
  O   O25       1.0  0.00143  0.94443  0.38198  1.0000
  O   O26       1.0  0.00143  0.06505  0.38200  1.0000
  H   H58       1.0  0.00111  0.11127  0.39509  1.0000
  H   H59       1.0  0.00010  0.66519  0.42416  1.0000
  O   O27       1.0  0.00010  0.56053  0.42996  1.0000
  O   O28       1.0  0.99990  0.56074  0.44504  1.0000
  H   H60       1.0  0.99990  0.66553  0.45080  1.0000
  H   H61       1.0  0.99990  0.89856  0.47993  1.0000
  O   O29       1.0  0.99877  0.94473  0.49302  1.0000
  O   O30       1.0  0.99877  0.06523  0.49302  1.0000
  H   H62       1.0  0.99990  0.11158  0.47994  1.0000
  H   H63       1.0  0.00010  0.34426  0.42421  1.0000
  O   O31       1.0  0.00010  0.44894  0.42997  1.0000
  O   O32       1.0  0.99990  0.44900  0.44503  1.0000
  H   H64       1.0  0.99990  0.34440  0.45083  1.0000
  Ni  Ni4       1.0  0.00010  0.00489  0.43751  1.0000
  C   C193      1.0  0.06793  0.00470  0.21664  1.0000
  C   C194      1.0  0.03674  0.00482  0.22328  1.0000
  C   C195      1.0  0.97489  0.00482  0.22327  1.0000
  C   C196      1.0  0.94370  0.00470  0.21662  1.0000
  C   C197      1.0  0.97600  0.00459  0.21016  1.0000
  C   C198      1.0  0.03564  0.00459  0.21017  1.0000
  C   C199      1.0  0.05433  0.00446  0.20291  1.0000
  N   N33       1.0  0.00568  0.00438  0.19833  1.0000
  C   C200      1.0  0.95715  0.00446  0.20289  1.0000
  N   N34       1.0  0.89937  0.00442  0.20076  1.0000
  C   C201      1.0  0.88232  0.00429  0.19355  1.0000
  N   N35       1.0  0.91881  0.00418  0.18748  1.0000
  C   C202      1.0  0.88221  0.00407  0.18140  1.0000
  C   C203      1.0  0.82415  0.00412  0.18375  1.0000
  C   C204      1.0  0.82416  0.00425  0.19119  1.0000
  N   N36       1.0  0.00519  0.00399  0.17667  1.0000
  C   C205      1.0  0.95661  0.00391  0.17210  1.0000
  N   N37       1.0  0.89905  0.00394  0.17421  1.0000
  C   C206      1.0  0.97533  0.00378  0.16484  1.0000
  C   C207      1.0  0.03490  0.00378  0.16484  1.0000
  C   C208      1.0  0.05372  0.00391  0.17211  1.0000
  C   C209      1.0  0.77252  0.00432  0.19523  1.0000
  C   C210      1.0  0.71936  0.00425  0.19135  1.0000
  C   C211      1.0  0.71930  0.00411  0.18363  1.0000
  C   C212      1.0  0.77240  0.00404  0.17972  1.0000
  C   C213      1.0  0.06717  0.00366  0.15839  1.0000
  C   C214      1.0  0.03607  0.00354  0.15174  1.0000
  C   C215      1.0  0.97428  0.00354  0.15174  1.0000
  C   C216      1.0  0.94309  0.00366  0.15838  1.0000
  N   N38       1.0  0.09210  0.00418  0.18753  1.0000
  C   C217      1.0  0.12853  0.00407  0.18146  1.0000
  N   N39       1.0  0.11142  0.00394  0.17424  1.0000
  C   C218      1.0  0.18671  0.00412  0.18381  1.0000
  C   C219      1.0  0.18678  0.00425  0.19126  1.0000
  C   C220      1.0  0.12873  0.00429  0.19360  1.0000
  C   C221      1.0  0.23856  0.00432  0.19529  1.0000
  C   C222      1.0  0.29170  0.00425  0.19139  1.0000
  C   C223      1.0  0.29157  0.00411  0.18366  1.0000
  C   C224      1.0  0.23832  0.00404  0.17977  1.0000
  N   N40       1.0  0.11192  0.00442  0.20081  1.0000
  H   H65       1.0  0.11320  0.00470  0.21657  1.0000
  H   H66       1.0  0.89839  0.00470  0.21653  1.0000
  H   H67       1.0  0.77322  0.00442  0.20089  1.0000
  H   H68       1.0  0.77299  0.00394  0.17406  1.0000
  H   H69       1.0  0.11242  0.00366  0.15847  1.0000
  H   H70       1.0  0.89783  0.00366  0.15845  1.0000
  H   H71       1.0  0.23801  0.00442  0.20095  1.0000
  H   H72       1.0  0.23760  0.00394  0.17410  1.0000
  C   C225      1.0  0.34493  0.00432  0.19518  1.0000
  C   C226      1.0  0.39794  0.00425  0.19133  1.0000
  C   C227      1.0  0.39782  0.00411  0.18369  1.0000
  C   C228      1.0  0.34470  0.00405  0.17985  1.0000
  C   C229      1.0  0.06710  0.00494  0.22994  1.0000
  C   C230      1.0  0.03635  0.00506  0.23657  1.0000
  C   C231      1.0  0.97521  0.00506  0.23656  1.0000
  C   C232      1.0  0.94450  0.00494  0.22992  1.0000
  C   C233      1.0  0.66618  0.00432  0.19515  1.0000
  C   C234      1.0  0.61311  0.00425  0.19132  1.0000
  C   C235      1.0  0.61308  0.00411  0.18368  1.0000
  C   C236      1.0  0.66610  0.00405  0.17984  1.0000
  C   C237      1.0  0.06649  0.00342  0.14509  1.0000
  C   C238      1.0  0.03585  0.00330  0.13846  1.0000
  C   C239      1.0  0.97477  0.00330  0.13846  1.0000
  C   C240      1.0  0.94402  0.00342  0.14508  1.0000
  H   H73       1.0  0.34511  0.00442  0.20084  1.0000
  O   O33       1.0  0.44974  0.00432  0.19504  1.0000
  O   O34       1.0  0.44954  0.00405  0.17996  1.0000
  H   H74       1.0  0.34477  0.00394  0.17419  1.0000
  H   H75       1.0  0.11238  0.00494  0.22996  1.0000
  O   O35       1.0  0.06604  0.00518  0.24305  1.0000
  O   O36       1.0  0.94541  0.00518  0.24303  1.0000
  H   H76       1.0  0.89922  0.00494  0.22993  1.0000
  H   H77       1.0  0.66607  0.00442  0.20081  1.0000
  O   O37       1.0  0.56136  0.00432  0.19504  1.0000
  O   O38       1.0  0.56131  0.00405  0.17998  1.0000
  H   H78       1.0  0.66595  0.00394  0.17418  1.0000
  H   H79       1.0  0.11169  0.00342  0.14507  1.0000
  O   O39       1.0  0.06556  0.00319  0.13199  1.0000
  O   O40       1.0  0.94511  0.00319  0.13199  1.0000
  H   H80       1.0  0.89877  0.00342  0.14507  1.0000
  Ni  Ni5       1.0  0.00544  0.00418  0.18750  1.0000
  C   C241      1.0  0.00395  0.77233  0.67971  1.0000
  C   C242      1.0  0.00401  0.71922  0.68361  1.0000
  C   C243      1.0  0.00415  0.71936  0.69134  1.0000
  C   C244      1.0  0.00422  0.77258  0.69524  1.0000
  C   C245      1.0  0.00415  0.82421  0.69119  1.0000
  C   C246      1.0  0.00402  0.82409  0.68374  1.0000
  C   C247      1.0  0.00398  0.88215  0.68140  1.0000
  N   N41       1.0  0.00408  0.91883  0.68748  1.0000
  C   C248      1.0  0.00419  0.88236  0.69355  1.0000
  N   N42       1.0  0.00431  0.89945  0.70077  1.0000
  C   C249      1.0  0.00435  0.95715  0.70290  1.0000
  N   N43       1.0  0.00427  0.00568  0.69833  1.0000
  C   C250      1.0  0.00435  0.05429  0.70290  1.0000
  C   C251      1.0  0.00447  0.03557  0.71016  1.0000
  C   C252      1.0  0.00447  0.97600  0.71016  1.0000
  N   N44       1.0  0.00408  0.09209  0.68753  1.0000
  C   C253      1.0  0.00419  0.12867  0.69360  1.0000
  N   N45       1.0  0.00431  0.11186  0.70080  1.0000
  C   C254      1.0  0.00415  0.18676  0.69126  1.0000
  C   C255      1.0  0.00402  0.18669  0.68381  1.0000
  C   C256      1.0  0.00398  0.12856  0.68146  1.0000
  C   C257      1.0  0.00459  0.94374  0.71662  1.0000
  C   C258      1.0  0.00470  0.97481  0.72326  1.0000
  C   C259      1.0  0.00470  0.03659  0.72327  1.0000
  C   C260      1.0  0.00459  0.06780  0.71663  1.0000
  C   C261      1.0  0.00395  0.23834  0.67977  1.0000
  C   C262      1.0  0.00401  0.29154  0.68366  1.0000
  C   C263      1.0  0.00415  0.29157  0.69138  1.0000
  C   C264      1.0  0.00422  0.23847  0.69528  1.0000
  N   N46       1.0  0.00389  0.00522  0.67667  1.0000
  C   C265      1.0  0.00381  0.05374  0.67211  1.0000
  N   N47       1.0  0.00385  0.11149  0.67425  1.0000
  C   C266      1.0  0.00369  0.03492  0.66484  1.0000
  C   C267      1.0  0.00369  0.97530  0.66484  1.0000
  C   C268      1.0  0.00381  0.95658  0.67210  1.0000
  C   C269      1.0  0.00358  0.94305  0.65837  1.0000
  C   C270      1.0  0.00346  0.97423  0.65172  1.0000
  C   C271      1.0  0.00346  0.03606  0.65173  1.0000
  C   C272      1.0  0.00358  0.06721  0.65839  1.0000
  N   N48       1.0  0.00385  0.89893  0.67420  1.0000
  H   H81       1.0  0.00385  0.77288  0.67405  1.0000
  H   H82       1.0  0.00431  0.77331  0.70090  1.0000
  H   H83       1.0  0.00458  0.89846  0.71654  1.0000
  H   H84       1.0  0.00458  0.11305  0.71655  1.0000
  H   H85       1.0  0.00385  0.23766  0.67412  1.0000
  H   H86       1.0  0.00431  0.23786  0.70094  1.0000
  H   H87       1.0  0.00358  0.89776  0.65844  1.0000
  H   H88       1.0  0.00358  0.11251  0.65848  1.0000
  C   C273      1.0  0.00335  0.94387  0.64507  1.0000
  C   C274      1.0  0.00323  0.97464  0.63844  1.0000
  C   C275      1.0  0.00323  0.03579  0.63845  1.0000
  C   C276      1.0  0.00335  0.06647  0.64509  1.0000
  C   C277      1.0  0.00395  0.66592  0.67982  1.0000
  C   C278      1.0  0.00401  0.61291  0.68366  1.0000
  C   C279      1.0  0.00415  0.61303  0.69131  1.0000
  C   C280      1.0  0.00421  0.66616  0.69514  1.0000
  C   C281      1.0  0.00482  0.94439  0.72991  1.0000
  C   C282      1.0  0.00493  0.97508  0.73655  1.0000
  C   C283      1.0  0.00493  0.03621  0.73654  1.0000
  C   C284      1.0  0.00482  0.06693  0.72992  1.0000
  C   C285      1.0  0.00395  0.34472  0.67985  1.0000
  C   C286      1.0  0.00401  0.39774  0.68368  1.0000
  C   C287      1.0  0.00415  0.39781  0.69131  1.0000
  C   C288      1.0  0.00421  0.34480  0.69516  1.0000
  H   H89       1.0  0.00334  0.89860  0.64505  1.0000
  O   O41       1.0  0.00312  0.94494  0.63197  1.0000
  O   O42       1.0  0.00312  0.06556  0.63199  1.0000
  H   H90       1.0  0.00335  0.11180  0.64508  1.0000
  H   H91       1.0  0.00385  0.66573  0.67416  1.0000
  O   O43       1.0  0.00395  0.56107  0.67996  1.0000
  O   O44       1.0  0.00421  0.56130  0.69503  1.0000
  H   H92       1.0  0.00431  0.66609  0.70080  1.0000
  H   H93       1.0  0.00482  0.89915  0.72993  1.0000
  O   O45       1.0  0.00504  0.94533  0.74302  1.0000
  O   O46       1.0  0.00504  0.06583  0.74301  1.0000
  H   H94       1.0  0.00482  0.11217  0.72993  1.0000
  H   H95       1.0  0.00385  0.34481  0.67420  1.0000
  O   O47       1.0  0.00395  0.44949  0.67996  1.0000
  O   O48       1.0  0.00421  0.44956  0.69502  1.0000
  H   H96       1.0  0.00431  0.34496  0.70082  1.0000
  Ni  Ni6       1.0  0.00408  0.00545  0.68750  1.0000
  C   C289      1.0  0.06685  0.00534  0.84163  1.0000
  C   C290      1.0  0.03566  0.00521  0.84827  1.0000
  C   C291      1.0  0.97381  0.00521  0.84825  1.0000
  C   C292      1.0  0.94262  0.00534  0.84160  1.0000
  C   C293      1.0  0.97492  0.00548  0.83515  1.0000
  C   C294      1.0  0.03456  0.00547  0.83516  1.0000
  C   C295      1.0  0.05325  0.00562  0.82790  1.0000
  N   N49       1.0  0.00461  0.00572  0.82332  1.0000
  C   C296      1.0  0.95607  0.00562  0.82788  1.0000
  N   N50       1.0  0.89829  0.00567  0.82574  1.0000
  C   C297      1.0  0.88125  0.00581  0.81853  1.0000
  N   N51       1.0  0.91774  0.00594  0.81246  1.0000
  C   C298      1.0  0.88114  0.00606  0.80639  1.0000
  C   C299      1.0  0.82308  0.00601  0.80873  1.0000
  C   C300      1.0  0.82309  0.00586  0.81618  1.0000
  N   N52       1.0  0.00413  0.00616  0.80166  1.0000
  C   C301      1.0  0.95555  0.00625  0.79709  1.0000
  N   N53       1.0  0.89798  0.00621  0.79919  1.0000
  C   C302      1.0  0.97427  0.00640  0.78983  1.0000
  C   C303      1.0  0.03385  0.00640  0.78983  1.0000
  C   C304      1.0  0.05266  0.00625  0.79710  1.0000
  C   C305      1.0  0.77145  0.00578  0.82021  1.0000
  C   C306      1.0  0.71829  0.00586  0.81633  1.0000
  C   C307      1.0  0.71823  0.00601  0.80861  1.0000
  C   C308      1.0  0.77134  0.00609  0.80471  1.0000
  C   C309      1.0  0.06612  0.00653  0.78337  1.0000
  C   C310      1.0  0.03502  0.00666  0.77672  1.0000
  C   C311      1.0  0.97323  0.00666  0.77672  1.0000
  C   C312      1.0  0.94204  0.00653  0.78336  1.0000
  N   N54       1.0  0.09103  0.00594  0.81251  1.0000
  C   C313      1.0  0.12746  0.00606  0.80645  1.0000
  N   N55       1.0  0.11036  0.00621  0.79923  1.0000
  C   C314      1.0  0.18564  0.00601  0.80879  1.0000
  C   C315      1.0  0.18571  0.00586  0.81625  1.0000
  C   C316      1.0  0.12766  0.00581  0.81859  1.0000
  C   C317      1.0  0.23749  0.00578  0.82028  1.0000
  C   C318      1.0  0.29063  0.00586  0.81638  1.0000
  C   C319      1.0  0.29051  0.00601  0.80865  1.0000
  C   C320      1.0  0.23725  0.00609  0.80476  1.0000
  N   N56       1.0  0.11085  0.00567  0.82580  1.0000
  H   H97       1.0  0.11212  0.00534  0.84156  1.0000
  H   H98       1.0  0.89731  0.00535  0.84151  1.0000
  H   H99       1.0  0.77214  0.00566  0.82587  1.0000
  H   H100      1.0  0.77193  0.00621  0.79905  1.0000
  H   H101      1.0  0.11137  0.00653  0.78346  1.0000
  H   H102      1.0  0.89677  0.00653  0.78344  1.0000
  H   H103      1.0  0.23693  0.00566  0.82594  1.0000
  H   H104      1.0  0.23653  0.00621  0.79909  1.0000
  C   C321      1.0  0.34386  0.00578  0.82017  1.0000
  C   C322      1.0  0.39687  0.00586  0.81632  1.0000
  C   C323      1.0  0.39676  0.00601  0.80868  1.0000
  C   C324      1.0  0.34364  0.00609  0.80484  1.0000
  C   C325      1.0  0.06601  0.00507  0.85493  1.0000
  C   C326      1.0  0.03526  0.00494  0.86156  1.0000
  C   C327      1.0  0.97412  0.00494  0.86154  1.0000
  C   C328      1.0  0.94342  0.00507  0.85490  1.0000
  C   C329      1.0  0.66510  0.00578  0.82014  1.0000
  C   C330      1.0  0.61204  0.00586  0.81630  1.0000
  C   C331      1.0  0.61202  0.00601  0.80866  1.0000
  C   C332      1.0  0.66503  0.00609  0.80482  1.0000
  C   C333      1.0  0.06544  0.00680  0.77008  1.0000
  C   C334      1.0  0.03480  0.00693  0.76345  1.0000
  C   C335      1.0  0.97373  0.00693  0.76344  1.0000
  C   C336      1.0  0.94297  0.00680  0.77007  1.0000
  H   H105      1.0  0.34404  0.00566  0.82583  1.0000
  O   O49       1.0  0.44867  0.00578  0.82003  1.0000
  O   O50       1.0  0.44848  0.00609  0.80495  1.0000
  H   H106      1.0  0.34371  0.00621  0.79918  1.0000
  H   H107      1.0  0.11129  0.00507  0.85495  1.0000
  O   O51       1.0  0.06495  0.00481  0.86803  1.0000
  O   O52       1.0  0.94431  0.00481  0.86801  1.0000
  H   H108      1.0  0.89813  0.00507  0.85491  1.0000
  H   H109      1.0  0.66500  0.00567  0.82579  1.0000
  O   O53       1.0  0.56029  0.00578  0.82003  1.0000
  O   O54       1.0  0.56025  0.00609  0.80496  1.0000
  H   H110      1.0  0.66488  0.00621  0.79916  1.0000
  H   H111      1.0  0.11064  0.00680  0.77006  1.0000
  O   O55       1.0  0.06452  0.00706  0.75698  1.0000
  O   O56       1.0  0.94407  0.00707  0.75698  1.0000
  H   H112      1.0  0.89772  0.00680  0.77005  1.0000
  Ni  Ni7       1.0  0.00437  0.00594  0.81249  1.0000
  C   C337      1.0  0.00626  0.77142  0.30472  1.0000
  C   C338      1.0  0.00617  0.71831  0.30862  1.0000
  C   C339      1.0  0.00600  0.71844  0.31635  1.0000
  C   C340      1.0  0.00592  0.77167  0.32025  1.0000
  C   C341      1.0  0.00600  0.82329  0.31621  1.0000
  C   C342      1.0  0.00617  0.82318  0.30875  1.0000
  C   C343      1.0  0.00622  0.88124  0.30642  1.0000
  N   N57       1.0  0.00609  0.91792  0.31249  1.0000
  C   C344      1.0  0.00595  0.88144  0.31856  1.0000
  N   N58       1.0  0.00579  0.89853  0.32578  1.0000
  C   C345      1.0  0.00575  0.95623  0.32791  1.0000
  N   N59       1.0  0.00585  0.00476  0.32335  1.0000
  C   C346      1.0  0.00575  0.05336  0.32792  1.0000
  C   C347      1.0  0.00559  0.03464  0.33518  1.0000
  C   C348      1.0  0.00559  0.97507  0.33518  1.0000
  N   N60       1.0  0.00608  0.09117  0.31255  1.0000
  C   C349      1.0  0.00595  0.12775  0.31862  1.0000
  N   N61       1.0  0.00579  0.11094  0.32581  1.0000
  C   C350      1.0  0.00600  0.18584  0.31627  1.0000
  C   C351      1.0  0.00617  0.18577  0.30883  1.0000
  C   C352      1.0  0.00622  0.12765  0.30648  1.0000
  C   C353      1.0  0.00545  0.94281  0.34164  1.0000
  C   C354      1.0  0.00530  0.97388  0.34828  1.0000
  C   C355      1.0  0.00530  0.03566  0.34828  1.0000
  C   C356      1.0  0.00545  0.06687  0.34164  1.0000
  C   C357      1.0  0.00626  0.23743  0.30479  1.0000
  C   C358      1.0  0.00617  0.29063  0.30868  1.0000
  C   C359      1.0  0.00600  0.29066  0.31640  1.0000
  C   C360      1.0  0.00591  0.23755  0.32030  1.0000
  N   N62       1.0  0.00632  0.00431  0.30169  1.0000
  C   C361      1.0  0.00642  0.05283  0.29713  1.0000
  N   N63       1.0  0.00638  0.11058  0.29927  1.0000
  C   C362      1.0  0.00658  0.03402  0.28986  1.0000
  C   C363      1.0  0.00658  0.97440  0.28985  1.0000
  C   C364      1.0  0.00642  0.95568  0.29711  1.0000
  C   C365      1.0  0.00672  0.94215  0.28338  1.0000
  C   C366      1.0  0.00687  0.97333  0.27674  1.0000
  C   C367      1.0  0.00687  0.03516  0.27675  1.0000
  C   C368      1.0  0.00672  0.06631  0.28341  1.0000
  N   N64       1.0  0.00638  0.89802  0.29922  1.0000
  H   H113      1.0  0.00638  0.77197  0.29906  1.0000
  H   H114      1.0  0.00579  0.77239  0.32591  1.0000
  H   H115      1.0  0.00545  0.89753  0.34155  1.0000
  H   H116      1.0  0.00545  0.11212  0.34157  1.0000
  H   H117      1.0  0.00638  0.23676  0.29913  1.0000
  H   H118      1.0  0.00579  0.23694  0.32596  1.0000
  H   H119      1.0  0.00672  0.89686  0.28346  1.0000
  H   H120      1.0  0.00672  0.11161  0.28350  1.0000
  C   C369      1.0  0.00702  0.94297  0.27009  1.0000
  C   C370      1.0  0.00716  0.97375  0.26346  1.0000
  C   C371      1.0  0.00716  0.03490  0.26347  1.0000
  C   C372      1.0  0.00702  0.06558  0.27011  1.0000
  C   C373      1.0  0.00625  0.66501  0.30483  1.0000
  C   C374      1.0  0.00617  0.61199  0.30868  1.0000
  C   C375      1.0  0.00600  0.61211  0.31632  1.0000
  C   C376      1.0  0.00592  0.66524  0.32016  1.0000
  C   C377      1.0  0.00516  0.94345  0.35493  1.0000
  C   C378      1.0  0.00501  0.97414  0.36156  1.0000
  C   C379      1.0  0.00501  0.03527  0.36156  1.0000
  C   C380      1.0  0.00516  0.06599  0.35493  1.0000
  C   C381      1.0  0.00625  0.34381  0.30487  1.0000
  C   C382      1.0  0.00617  0.39683  0.30870  1.0000
  C   C383      1.0  0.00600  0.39689  0.31633  1.0000
  C   C384      1.0  0.00592  0.34388  0.32018  1.0000
  H   H121      1.0  0.00702  0.89770  0.27007  1.0000
  O   O57       1.0  0.00730  0.94405  0.25699  1.0000
  O   O58       1.0  0.00730  0.06468  0.25701  1.0000
  H   H122      1.0  0.00702  0.11090  0.27010  1.0000
  H   H123      1.0  0.00638  0.66482  0.29917  1.0000
  O   O59       1.0  0.00625  0.56016  0.30497  1.0000
  O   O60       1.0  0.00592  0.56038  0.32005  1.0000
  H   H124      1.0  0.00579  0.66517  0.32582  1.0000
  H   H125      1.0  0.00515  0.89821  0.35494  1.0000
  O   O61       1.0  0.00487  0.94439  0.36803  1.0000
  O   O62       1.0  0.00487  0.06488  0.36803  1.0000
  H   H126      1.0  0.00515  0.11123  0.35495  1.0000
  H   H127      1.0  0.00638  0.34390  0.29922  1.0000
  O   O63       1.0  0.00625  0.44858  0.30498  1.0000
  O   O64       1.0  0.00592  0.44864  0.32004  1.0000
  H   H128      1.0  0.00579  0.34404  0.32583  1.0000
  Ni  Ni8       1.0  0.00609  0.00453  0.31252  1.0000
  Zn  Zn1       1.0  0.00652  0.00477  0.25002  1.0000
  Zn  Zn2       1.0  0.00467  0.00633  0.75000  1.0000
  Cu  Cu1       1.0  0.00531  0.00212  0.12501  1.0000
  Cu  Cu2       1.0  0.00206  0.00522  0.62500  1.0000
  Cu  Cu3       1.0  0.00468  0.00322  0.87500  1.0000
  Cu  Cu4       1.0  0.00311  0.00470  0.37501  1.0000
  Cu  Cu5       1.0  0.50506  0.00010  0.06250  1.0000
  Cu  Cu6       1.0  0.00010  0.50499  0.56249  1.0000
  Cu  Cu7       1.0  0.50482  0.00010  0.93749  1.0000
  Cu  Cu8       1.0  0.00010  0.50481  0.43750  1.0000
  Cu  Cu9       1.0  0.00499  0.99990  0.00010  1.0000
  Cu  Cu10      1.0  0.99990  0.00496  0.50000  1.0000
  Cu  Cu11      1.0  0.50549  0.00418  0.18750  1.0000
  Cu  Cu12      1.0  0.00408  0.50537  0.68749  1.0000
  Cu  Cu13      1.0  0.50442  0.00594  0.81249  1.0000
  Cu  Cu14      1.0  0.00609  0.50445  0.31251  1.0000
