data_image0
_chemical_formula_structural       C7NCNCNC3NCNC11NCNC7NHO2H2O2H2O2H2O2HNiC7NCNCNC3NCNC11NCNC7NHO2H2O2H2O2H2O2HNiC7NCNCNC3NCNC11NCNC7NHO2H2O2H2O2H2O2HNiC7NCNCNC3NCNC11NCNC7NHO2H2O2H2O2H2O2HNiC7NCNCNC3NCNC11NCNC7NHO2H2O2H2O2H2O2HNiC7NCNCNC3NCNC11NCNC7NHO2H2O2H2O2H2O2HNiC7NCNCNC3NCNC11NCNC7NHO2H2O2H2O2H2O2HNiC7NCNCNC3NCNC11NCNC7NHO2H2O2H2O2H2O2HNiZn2Cu14
_chemical_formula_sum              "C256 N64 H64 O64 Ni8 Zn2 Cu14"
_cell_length_a       19.2397
_cell_length_b       19.2397
_cell_length_c       153.919
_cell_angle_alpha    90.005
_cell_angle_beta     90.0065
_cell_angle_gamma    90

_space_group_name_H-M_alt    "P 1"
_space_group_IT_number       1

loop_
  _space_group_symop_operation_xyz
  'x, y, z'

loop_
  _atom_site_type_symbol
  _atom_site_label
  _atom_site_symmetry_multiplicity
  _atom_site_fract_x
  _atom_site_fract_y
  _atom_site_fract_z
  _atom_site_occupancy
  C   C1        1.0  0.91903  0.00010  0.09990  1.0000
  C   C2        1.0  0.95966  0.00010  0.10858  1.0000
  C   C3        1.0  0.04054  0.00010  0.10858  1.0000
  C   C4        1.0  0.08118  0.00010  0.09990  1.0000
  C   C5        1.0  0.03879  0.00010  0.09148  1.0000
  C   C6        1.0  0.96144  0.00010  0.09148  1.0000
  C   C7        1.0  0.93727  0.00010  0.08202  1.0000
  N   N1        1.0  0.00010  0.00010  0.07590  1.0000
  C   C8        1.0  0.06297  0.00010  0.08202  1.0000
  N   N2        1.0  0.13709  0.99990  0.07963  1.0000
  C   C9        1.0  0.15623  0.99990  0.07036  1.0000
  N   N3        1.0  0.10724  0.00010  0.06251  1.0000
  C   C10       1.0  0.15620  0.00010  0.05465  1.0000
  C   C11       1.0  0.23191  0.00010  0.05767  1.0000
  C   C12       1.0  0.23194  0.99990  0.06734  1.0000
  N   N4        1.0  0.00010  0.00010  0.04911  1.0000
  C   C13       1.0  0.06295  0.00010  0.04299  1.0000
  N   N5        1.0  0.13708  0.00010  0.04538  1.0000
  C   C14       1.0  0.03877  0.00010  0.03353  1.0000
  C   C15       1.0  0.96143  0.00010  0.03353  1.0000
  C   C16       1.0  0.93727  0.00010  0.04299  1.0000
  C   C17       1.0  0.29933  0.99990  0.07263  1.0000
  C   C18       1.0  0.36876  0.99990  0.06755  1.0000
  C   C19       1.0  0.36872  0.99990  0.05744  1.0000
  C   C20       1.0  0.29925  0.00010  0.05237  1.0000
  C   C21       1.0  0.91902  0.00010  0.02511  1.0000
  C   C22       1.0  0.95964  0.00010  0.01643  1.0000
  C   C23       1.0  0.04051  0.00010  0.01643  1.0000
  C   C24       1.0  0.08116  0.00010  0.02511  1.0000
  N   N6        1.0  0.89300  0.00010  0.06250  1.0000
  C   C25       1.0  0.84403  0.99990  0.05465  1.0000
  N   N7        1.0  0.86315  0.99990  0.04538  1.0000
  C   C26       1.0  0.76832  0.99990  0.05767  1.0000
  C   C27       1.0  0.76831  0.00010  0.06733  1.0000
  C   C28       1.0  0.84402  0.00010  0.07036  1.0000
  C   C29       1.0  0.70093  0.00010  0.07263  1.0000
  C   C30       1.0  0.63149  0.00010  0.06755  1.0000
  C   C31       1.0  0.63152  0.99990  0.05744  1.0000
  C   C32       1.0  0.70098  0.99990  0.05236  1.0000
  N   N8        1.0  0.86315  0.00010  0.07962  1.0000
  H   H1        1.0  0.86446  0.00010  0.09979  1.0000
  O   O1        1.0  0.92604  0.00010  0.11591  1.0000
  O   O2        1.0  0.07414  0.00010  0.11591  1.0000
  H   H2        1.0  0.13575  0.00010  0.09979  1.0000
  H   H3        1.0  0.29847  0.99990  0.07945  1.0000
  O   O3        1.0  0.42739  0.99990  0.07175  1.0000
  O   O4        1.0  0.42731  0.99990  0.05324  1.0000
  H   H4        1.0  0.29833  0.00010  0.04555  1.0000
  H   H5        1.0  0.86446  0.99990  0.02522  1.0000
  O   O5        1.0  0.92602  0.00010  0.00910  1.0000
  O   O6        1.0  0.07412  0.00010  0.00910  1.0000
  H   H6        1.0  0.13572  0.00010  0.02522  1.0000
  H   H7        1.0  0.70181  0.00010  0.07945  1.0000
  O   O7        1.0  0.57287  0.99990  0.07175  1.0000
  O   O8        1.0  0.57291  0.99990  0.05323  1.0000
  H   H8        1.0  0.70189  0.99990  0.04554  1.0000
  Ni  Ni1       1.0  0.00010  0.00010  0.06251  1.0000
  C   C33       1.0  0.99990  0.91912  0.59990  1.0000
  C   C34       1.0  0.99990  0.95975  0.60858  1.0000
  C   C35       1.0  0.99990  0.04063  0.60858  1.0000
  C   C36       1.0  0.99990  0.08127  0.59990  1.0000
  C   C37       1.0  0.99990  0.03888  0.59148  1.0000
  C   C38       1.0  0.99990  0.96153  0.59148  1.0000
  C   C39       1.0  0.99990  0.93737  0.58202  1.0000
  N   N9        1.0  0.99990  0.00010  0.57590  1.0000
  C   C40       1.0  0.99990  0.06306  0.58202  1.0000
  N   N10       1.0  0.00010  0.13719  0.57963  1.0000
  C   C41       1.0  0.00010  0.15632  0.57036  1.0000
  N   N11       1.0  0.99990  0.10734  0.56251  1.0000
  C   C42       1.0  0.99990  0.15631  0.55465  1.0000
  C   C43       1.0  0.00010  0.23201  0.55767  1.0000
  C   C44       1.0  0.00010  0.23204  0.56734  1.0000
  N   N12       1.0  0.99990  0.00010  0.54911  1.0000
  C   C45       1.0  0.99990  0.06306  0.54299  1.0000
  N   N13       1.0  0.99990  0.13718  0.54538  1.0000
  C   C46       1.0  0.99990  0.03888  0.53353  1.0000
  C   C47       1.0  0.00010  0.96153  0.53353  1.0000
  C   C48       1.0  0.00010  0.93737  0.54299  1.0000
  C   C49       1.0  0.00010  0.29943  0.57263  1.0000
  C   C50       1.0  0.00010  0.36886  0.56755  1.0000
  C   C51       1.0  0.00010  0.36882  0.55744  1.0000
  C   C52       1.0  0.00010  0.29936  0.55237  1.0000
  C   C53       1.0  0.00010  0.91913  0.52511  1.0000
  C   C54       1.0  0.99990  0.95975  0.51643  1.0000
  C   C55       1.0  0.99990  0.04062  0.51643  1.0000
  C   C56       1.0  0.99990  0.08126  0.52511  1.0000
  N   N14       1.0  0.99990  0.89310  0.56250  1.0000
  C   C57       1.0  0.00010  0.84413  0.55465  1.0000
  N   N15       1.0  0.00010  0.86325  0.54538  1.0000
  C   C58       1.0  0.00010  0.76842  0.55767  1.0000
  C   C59       1.0  0.99990  0.76841  0.56733  1.0000
  C   C60       1.0  0.99990  0.84412  0.57036  1.0000
  C   C61       1.0  0.99990  0.70103  0.57263  1.0000
  C   C62       1.0  0.00010  0.63159  0.56755  1.0000
  C   C63       1.0  0.00010  0.63162  0.55744  1.0000
  C   C64       1.0  0.00010  0.70108  0.55236  1.0000
  N   N16       1.0  0.99990  0.86325  0.57962  1.0000
  H   H9        1.0  0.99990  0.86456  0.59979  1.0000
  O   O9        1.0  0.99990  0.92613  0.61591  1.0000
  O   O10       1.0  0.99990  0.07423  0.61591  1.0000
  H   H10       1.0  0.00010  0.13584  0.59979  1.0000
  H   H11       1.0  0.00010  0.29857  0.57945  1.0000
  O   O11       1.0  0.00010  0.42749  0.57175  1.0000
  O   O12       1.0  0.00010  0.42742  0.55324  1.0000
  H   H12       1.0  0.00010  0.29844  0.54555  1.0000
  H   H13       1.0  0.00010  0.86457  0.52522  1.0000
  O   O13       1.0  0.99990  0.92613  0.50910  1.0000
  O   O14       1.0  0.99990  0.07423  0.50910  1.0000
  H   H14       1.0  0.99990  0.13583  0.52522  1.0000
  H   H15       1.0  0.99990  0.70190  0.57945  1.0000
  O   O15       1.0  0.00010  0.57297  0.57175  1.0000
  O   O16       1.0  0.00010  0.57301  0.55323  1.0000
  H   H16       1.0  0.00010  0.70200  0.54554  1.0000
  Ni  Ni2       1.0  0.99990  0.00010  0.56251  1.0000
  C   C65       1.0  0.91906  0.00010  0.97490  1.0000
  C   C66       1.0  0.95968  0.00010  0.98358  1.0000
  C   C67       1.0  0.04056  0.00010  0.98358  1.0000
  C   C68       1.0  0.08121  0.00010  0.97490  1.0000
  C   C69       1.0  0.03881  0.00010  0.96648  1.0000
  C   C70       1.0  0.96146  0.00010  0.96648  1.0000
  C   C71       1.0  0.93730  0.00010  0.95702  1.0000
  N   N17       1.0  0.00010  0.00010  0.95090  1.0000
  C   C72       1.0  0.06299  0.00010  0.95702  1.0000
  N   N18       1.0  0.13712  0.99990  0.95463  1.0000
  C   C73       1.0  0.15625  0.99990  0.94536  1.0000
  N   N19       1.0  0.10727  0.00010  0.93750  1.0000
  C   C74       1.0  0.15623  0.00010  0.92965  1.0000
  C   C75       1.0  0.23194  0.00010  0.93267  1.0000
  C   C76       1.0  0.23196  0.99990  0.94234  1.0000
  N   N20       1.0  0.00010  0.00010  0.92411  1.0000
  C   C77       1.0  0.06298  0.00010  0.91799  1.0000
  N   N21       1.0  0.13710  0.00010  0.92038  1.0000
  C   C78       1.0  0.03880  0.00010  0.90853  1.0000
  C   C79       1.0  0.96145  0.00010  0.90853  1.0000
  C   C80       1.0  0.93729  0.00010  0.91799  1.0000
  C   C81       1.0  0.29936  0.99990  0.94763  1.0000
  C   C82       1.0  0.36878  0.99990  0.94255  1.0000
  C   C83       1.0  0.36875  0.99990  0.93244  1.0000
  C   C84       1.0  0.29928  0.00010  0.92737  1.0000
  C   C85       1.0  0.91905  0.00010  0.90011  1.0000
  C   C86       1.0  0.95967  0.00010  0.89143  1.0000
  C   C87       1.0  0.04054  0.00010  0.89143  1.0000
  C   C88       1.0  0.08118  0.00010  0.90011  1.0000
  N   N22       1.0  0.89302  0.00010  0.93750  1.0000
  C   C89       1.0  0.84405  0.99990  0.92965  1.0000
  N   N23       1.0  0.86317  0.99990  0.92038  1.0000
  C   C90       1.0  0.76835  0.99990  0.93267  1.0000
  C   C91       1.0  0.76834  0.00010  0.94233  1.0000
  C   C92       1.0  0.84405  0.00010  0.94536  1.0000
  C   C93       1.0  0.70096  0.00010  0.94763  1.0000
  C   C94       1.0  0.63152  0.00010  0.94255  1.0000
  C   C95       1.0  0.63154  0.99990  0.93244  1.0000
  C   C96       1.0  0.70100  0.99990  0.92736  1.0000
  N   N24       1.0  0.86318  0.00010  0.95462  1.0000
  H   H17       1.0  0.86449  0.00010  0.97479  1.0000
  O   O17       1.0  0.92607  0.00010  0.99091  1.0000
  O   O18       1.0  0.07416  0.00010  0.99091  1.0000
  H   H18       1.0  0.13577  0.00010  0.97479  1.0000
  H   H19       1.0  0.29850  0.99990  0.95445  1.0000
  O   O19       1.0  0.42742  0.99990  0.94675  1.0000
  O   O20       1.0  0.42734  0.99990  0.92824  1.0000
  H   H20       1.0  0.29836  0.00010  0.92055  1.0000
  H   H21       1.0  0.86448  0.99990  0.90022  1.0000
  O   O21       1.0  0.92605  0.00010  0.88410  1.0000
  O   O22       1.0  0.07414  0.00010  0.88410  1.0000
  H   H22       1.0  0.13575  0.00010  0.90022  1.0000
  H   H23       1.0  0.70183  0.00010  0.95445  1.0000
  O   O23       1.0  0.57290  0.99990  0.94675  1.0000
  O   O24       1.0  0.57294  0.99990  0.92823  1.0000
  H   H24       1.0  0.70192  0.99990  0.92054  1.0000
  Ni  Ni3       1.0  0.00010  0.00010  0.93751  1.0000
  C   C97       1.0  0.99990  0.08139  0.40011  1.0000
  C   C98       1.0  0.99990  0.04076  0.39143  1.0000
  C   C99       1.0  0.99990  0.95989  0.39143  1.0000
  C   C100      1.0  0.00010  0.91924  0.40011  1.0000
  C   C101      1.0  0.99990  0.96163  0.40853  1.0000
  C   C102      1.0  0.99990  0.03898  0.40853  1.0000
  C   C103      1.0  0.99990  0.06314  0.41800  1.0000
  N   N25       1.0  0.99990  0.00010  0.42412  1.0000
  C   C104      1.0  0.99990  0.93745  0.41799  1.0000
  N   N26       1.0  0.00010  0.86332  0.42038  1.0000
  C   C105      1.0  0.00010  0.84419  0.42965  1.0000
  N   N27       1.0  0.99990  0.89317  0.43751  1.0000
  C   C106      1.0  0.99990  0.84421  0.44536  1.0000
  C   C107      1.0  0.00010  0.76850  0.44234  1.0000
  C   C108      1.0  0.00010  0.76847  0.43267  1.0000
  N   N28       1.0  0.99990  0.00010  0.45090  1.0000
  C   C109      1.0  0.99990  0.93745  0.45702  1.0000
  N   N29       1.0  0.99990  0.86333  0.45463  1.0000
  C   C110      1.0  0.99990  0.96163  0.46648  1.0000
  C   C111      1.0  0.00010  0.03898  0.46648  1.0000
  C   C112      1.0  0.00010  0.06314  0.45702  1.0000
  C   C113      1.0  0.00010  0.70108  0.42738  1.0000
  C   C114      1.0  0.00010  0.63165  0.43246  1.0000
  C   C115      1.0  0.00010  0.63169  0.44257  1.0000
  C   C116      1.0  0.00010  0.70116  0.44764  1.0000
  C   C117      1.0  0.00010  0.08138  0.47490  1.0000
  C   C118      1.0  0.99990  0.04076  0.48358  1.0000
  C   C119      1.0  0.99990  0.95989  0.48358  1.0000
  C   C120      1.0  0.99990  0.91925  0.47490  1.0000
  N   N30       1.0  0.99990  0.10741  0.43751  1.0000
  C   C121      1.0  0.00010  0.15638  0.44536  1.0000
  N   N31       1.0  0.00010  0.13726  0.45463  1.0000
  C   C122      1.0  0.00010  0.23209  0.44235  1.0000
  C   C123      1.0  0.99990  0.23210  0.43268  1.0000
  C   C124      1.0  0.99990  0.15639  0.42965  1.0000
  C   C125      1.0  0.99990  0.29948  0.42738  1.0000
  C   C126      1.0  0.00010  0.36892  0.43246  1.0000
  C   C127      1.0  0.00010  0.36889  0.44257  1.0000
  C   C128      1.0  0.00010  0.29943  0.44765  1.0000
  N   N32       1.0  0.99990  0.13726  0.42039  1.0000
  H   H25       1.0  0.99990  0.13595  0.40022  1.0000
  O   O25       1.0  0.99990  0.07438  0.38410  1.0000
  O   O26       1.0  0.99990  0.92628  0.38410  1.0000
  H   H26       1.0  0.00010  0.86467  0.40022  1.0000
  H   H27       1.0  0.00010  0.70194  0.42056  1.0000
  O   O27       1.0  0.00010  0.57302  0.42826  1.0000
  O   O28       1.0  0.00010  0.57309  0.44677  1.0000
  H   H28       1.0  0.00010  0.70207  0.45446  1.0000
  H   H29       1.0  0.00010  0.13595  0.47479  1.0000
  O   O29       1.0  0.99990  0.07438  0.49091  1.0000
  O   O30       1.0  0.99990  0.92628  0.49091  1.0000
  H   H30       1.0  0.99990  0.86468  0.47479  1.0000
  H   H31       1.0  0.99990  0.29861  0.42056  1.0000
  O   O31       1.0  0.00010  0.42754  0.42826  1.0000
  O   O32       1.0  0.00010  0.42750  0.44678  1.0000
  H   H32       1.0  0.00010  0.29852  0.45447  1.0000
  Ni  Ni4       1.0  0.99990  0.00010  0.43751  1.0000
  C   C129      1.0  0.91905  0.00010  0.22490  1.0000
  C   C130      1.0  0.95968  0.00010  0.23358  1.0000
  C   C131      1.0  0.04056  0.00010  0.23358  1.0000
  C   C132      1.0  0.08120  0.00010  0.22490  1.0000
  C   C133      1.0  0.03881  0.00010  0.21648  1.0000
  C   C134      1.0  0.96146  0.00010  0.21648  1.0000
  C   C135      1.0  0.93729  0.00010  0.20702  1.0000
  N   N33       1.0  0.00010  0.00010  0.20090  1.0000
  C   C136      1.0  0.06298  0.00010  0.20702  1.0000
  N   N34       1.0  0.13711  0.99990  0.20463  1.0000
  C   C137      1.0  0.15624  0.99990  0.19536  1.0000
  N   N35       1.0  0.10726  0.00010  0.18751  1.0000
  C   C138      1.0  0.15622  0.00010  0.17965  1.0000
  C   C139      1.0  0.23193  0.00010  0.18267  1.0000
  C   C140      1.0  0.23196  0.99990  0.19234  1.0000
  N   N36       1.0  0.00010  0.00010  0.17411  1.0000
  C   C141      1.0  0.06297  0.00010  0.16799  1.0000
  N   N37       1.0  0.13709  0.00010  0.17038  1.0000
  C   C142      1.0  0.03879  0.00010  0.15853  1.0000
  C   C143      1.0  0.96144  0.00010  0.15853  1.0000
  C   C144      1.0  0.93728  0.00010  0.16799  1.0000
  C   C145      1.0  0.29935  0.99990  0.19763  1.0000
  C   C146      1.0  0.36878  0.99990  0.19255  1.0000
  C   C147      1.0  0.36874  0.99990  0.18244  1.0000
  C   C148      1.0  0.29927  0.00010  0.17737  1.0000
  C   C149      1.0  0.91904  0.99990  0.15011  1.0000
  C   C150      1.0  0.95965  0.00010  0.14143  1.0000
  C   C151      1.0  0.04052  0.00010  0.14143  1.0000
  C   C152      1.0  0.08117  0.00010  0.15011  1.0000
  N   N38       1.0  0.89302  0.00010  0.18750  1.0000
  C   C153      1.0  0.84405  0.99990  0.17965  1.0000
  N   N39       1.0  0.86316  0.99990  0.17038  1.0000
  C   C154      1.0  0.76834  0.99990  0.18267  1.0000
  C   C155      1.0  0.76833  0.00010  0.19233  1.0000
  C   C156      1.0  0.84404  0.00010  0.19536  1.0000
  C   C157      1.0  0.70095  0.00010  0.19763  1.0000
  C   C158      1.0  0.63151  0.00010  0.19255  1.0000
  C   C159      1.0  0.63153  0.99990  0.18244  1.0000
  C   C160      1.0  0.70099  0.99990  0.17736  1.0000
  N   N40       1.0  0.86317  0.00010  0.20462  1.0000
  H   H33       1.0  0.86448  0.00010  0.22479  1.0000
  O   O33       1.0  0.92606  0.00010  0.24091  1.0000
  O   O34       1.0  0.07416  0.00010  0.24091  1.0000
  H   H34       1.0  0.13577  0.00010  0.22479  1.0000
  H   H35       1.0  0.29849  0.99990  0.20445  1.0000
  O   O35       1.0  0.42741  0.99990  0.19675  1.0000
  O   O36       1.0  0.42733  0.99990  0.17824  1.0000
  H   H36       1.0  0.29835  0.00010  0.17055  1.0000
  H   H37       1.0  0.86447  0.99990  0.15022  1.0000
  O   O37       1.0  0.92603  0.00010  0.13410  1.0000
  O   O38       1.0  0.07413  0.00010  0.13410  1.0000
  H   H38       1.0  0.13574  0.00010  0.15022  1.0000
  H   H39       1.0  0.70183  0.00010  0.20445  1.0000
  O   O39       1.0  0.57289  0.99990  0.19675  1.0000
  O   O40       1.0  0.57293  0.99990  0.17823  1.0000
  H   H40       1.0  0.70191  0.99990  0.17054  1.0000
  Ni  Ni5       1.0  0.00010  0.00010  0.18751  1.0000
  C   C161      1.0  0.99990  0.91918  0.72490  1.0000
  C   C162      1.0  0.99990  0.95980  0.73358  1.0000
  C   C163      1.0  0.99990  0.04068  0.73358  1.0000
  C   C164      1.0  0.00010  0.08132  0.72490  1.0000
  C   C165      1.0  0.99990  0.03893  0.71648  1.0000
  C   C166      1.0  0.99990  0.96159  0.71648  1.0000
  C   C167      1.0  0.99990  0.93742  0.70702  1.0000
  N   N41       1.0  0.99990  0.00010  0.70090  1.0000
  C   C168      1.0  0.99990  0.06311  0.70702  1.0000
  N   N42       1.0  0.00010  0.13724  0.70463  1.0000
  C   C169      1.0  0.00010  0.15638  0.69536  1.0000
  N   N43       1.0  0.99990  0.10740  0.68751  1.0000
  C   C170      1.0  0.99990  0.15636  0.67965  1.0000
  C   C171      1.0  0.00010  0.23207  0.68267  1.0000
  C   C172      1.0  0.00010  0.23209  0.69234  1.0000
  N   N44       1.0  0.99990  0.00010  0.67411  1.0000
  C   C173      1.0  0.99990  0.06311  0.66799  1.0000
  N   N45       1.0  0.99990  0.13724  0.67038  1.0000
  C   C174      1.0  0.99990  0.03893  0.65853  1.0000
  C   C175      1.0  0.00010  0.96159  0.65853  1.0000
  C   C176      1.0  0.00010  0.93743  0.66799  1.0000
  C   C177      1.0  0.00010  0.29948  0.69763  1.0000
  C   C178      1.0  0.00010  0.36891  0.69255  1.0000
  C   C179      1.0  0.00010  0.36888  0.68244  1.0000
  C   C180      1.0  0.00010  0.29941  0.67737  1.0000
  C   C181      1.0  0.00010  0.91919  0.65011  1.0000
  C   C182      1.0  0.99990  0.95981  0.64143  1.0000
  C   C183      1.0  0.99990  0.04068  0.64143  1.0000
  C   C184      1.0  0.99990  0.08132  0.65011  1.0000
  N   N46       1.0  0.99990  0.89315  0.68750  1.0000
  C   C185      1.0  0.00010  0.84418  0.67965  1.0000
  N   N47       1.0  0.00010  0.86331  0.67038  1.0000
  C   C186      1.0  0.00010  0.76848  0.68267  1.0000
  C   C187      1.0  0.99990  0.76846  0.69233  1.0000
  C   C188      1.0  0.99990  0.84418  0.69536  1.0000
  C   C189      1.0  0.99990  0.70108  0.69763  1.0000
  C   C190      1.0  0.00010  0.63165  0.69255  1.0000
  C   C191      1.0  0.00010  0.63167  0.68244  1.0000
  C   C192      1.0  0.00010  0.70113  0.67736  1.0000
  N   N48       1.0  0.99990  0.86330  0.70462  1.0000
  H   H41       1.0  0.99990  0.86461  0.72479  1.0000
  O   O41       1.0  0.99990  0.92618  0.74091  1.0000
  O   O42       1.0  0.99990  0.07428  0.74091  1.0000
  H   H42       1.0  0.00010  0.13589  0.72479  1.0000
  H   H43       1.0  0.00010  0.29862  0.70445  1.0000
  O   O43       1.0  0.00010  0.42754  0.69675  1.0000
  O   O44       1.0  0.00010  0.42747  0.67824  1.0000
  H   H44       1.0  0.00010  0.29849  0.67055  1.0000
  H   H45       1.0  0.00010  0.86462  0.65022  1.0000
  O   O45       1.0  0.99990  0.92619  0.63410  1.0000
  O   O46       1.0  0.99990  0.07429  0.63410  1.0000
  H   H46       1.0  0.99990  0.13589  0.65022  1.0000
  H   H47       1.0  0.99990  0.70196  0.70445  1.0000
  O   O47       1.0  0.00010  0.57302  0.69675  1.0000
  O   O48       1.0  0.00010  0.57307  0.67823  1.0000
  H   H48       1.0  0.00010  0.70205  0.67054  1.0000
  Ni  Ni6       1.0  0.99990  0.00010  0.68751  1.0000
  C   C193      1.0  0.91904  0.00010  0.84990  1.0000
  C   C194      1.0  0.95967  0.00010  0.85858  1.0000
  C   C195      1.0  0.04055  0.00010  0.85858  1.0000
  C   C196      1.0  0.08119  0.00010  0.84990  1.0000
  C   C197      1.0  0.03880  0.00010  0.84148  1.0000
  C   C198      1.0  0.96145  0.00010  0.84148  1.0000
  C   C199      1.0  0.93728  0.00010  0.83202  1.0000
  N   N49       1.0  0.00010  0.00010  0.82590  1.0000
  C   C200      1.0  0.06297  0.00010  0.83202  1.0000
  N   N50       1.0  0.13710  0.99990  0.82963  1.0000
  C   C201      1.0  0.15623  0.99990  0.82036  1.0000
  N   N51       1.0  0.10724  0.00010  0.81250  1.0000
  C   C202      1.0  0.15620  0.00010  0.80465  1.0000
  C   C203      1.0  0.23191  0.00010  0.80767  1.0000
  C   C204      1.0  0.23194  0.99990  0.81734  1.0000
  N   N52       1.0  0.00010  0.00010  0.79911  1.0000
  C   C205      1.0  0.06295  0.00010  0.79299  1.0000
  N   N53       1.0  0.13707  0.00010  0.79538  1.0000
  C   C206      1.0  0.03876  0.00010  0.78353  1.0000
  C   C207      1.0  0.96142  0.00010  0.78353  1.0000
  C   C208      1.0  0.93726  0.00010  0.79299  1.0000
  C   C209      1.0  0.29933  0.99990  0.82263  1.0000
  C   C210      1.0  0.36876  0.99990  0.81755  1.0000
  C   C211      1.0  0.36872  0.99990  0.80744  1.0000
  C   C212      1.0  0.29925  0.00010  0.80236  1.0000
  C   C213      1.0  0.91901  0.00010  0.77511  1.0000
  C   C214      1.0  0.95963  0.00010  0.76643  1.0000
  C   C215      1.0  0.04050  0.00010  0.76643  1.0000
  C   C216      1.0  0.08115  0.00010  0.77511  1.0000
  N   N54       1.0  0.89300  0.00010  0.81250  1.0000
  C   C217      1.0  0.84403  0.99990  0.80465  1.0000
  N   N55       1.0  0.86314  0.99990  0.79538  1.0000
  C   C218      1.0  0.76832  0.00010  0.80767  1.0000
  C   C219      1.0  0.76831  0.00010  0.81733  1.0000
  C   C220      1.0  0.84403  0.00010  0.82036  1.0000
  C   C221      1.0  0.70093  0.00010  0.82263  1.0000
  C   C222      1.0  0.63150  0.00010  0.81755  1.0000
  C   C223      1.0  0.63151  0.99990  0.80744  1.0000
  C   C224      1.0  0.70097  0.99990  0.80236  1.0000
  N   N56       1.0  0.86316  0.00010  0.82962  1.0000
  H   H49       1.0  0.86447  0.00010  0.84979  1.0000
  O   O49       1.0  0.92605  0.00010  0.86591  1.0000
  O   O50       1.0  0.07415  0.00010  0.86591  1.0000
  H   H50       1.0  0.13576  0.99990  0.84979  1.0000
  H   H51       1.0  0.29848  0.99990  0.82945  1.0000
  O   O51       1.0  0.42739  0.99990  0.82175  1.0000
  O   O52       1.0  0.42731  0.99990  0.80323  1.0000
  H   H52       1.0  0.29833  0.00010  0.79554  1.0000
  H   H53       1.0  0.86445  0.99990  0.77522  1.0000
  O   O53       1.0  0.92600  0.00010  0.75910  1.0000
  O   O54       1.0  0.07410  0.00010  0.75910  1.0000
  H   H54       1.0  0.13571  0.00010  0.77522  1.0000
  H   H55       1.0  0.70181  0.00010  0.82945  1.0000
  O   O55       1.0  0.57287  0.99990  0.82175  1.0000
  O   O56       1.0  0.57291  0.99990  0.80323  1.0000
  H   H56       1.0  0.70189  0.99990  0.79554  1.0000
  Ni  Ni7       1.0  0.00010  0.00010  0.81250  1.0000
  C   C225      1.0  0.99990  0.91921  0.34990  1.0000
  C   C226      1.0  0.99990  0.95984  0.35858  1.0000
  C   C227      1.0  0.99990  0.04072  0.35858  1.0000
  C   C228      1.0  0.99990  0.08136  0.34990  1.0000
  C   C229      1.0  0.99990  0.03896  0.34148  1.0000
  C   C230      1.0  0.99990  0.96161  0.34148  1.0000
  C   C231      1.0  0.99990  0.93744  0.33202  1.0000
  N   N57       1.0  0.99990  0.00010  0.32590  1.0000
  C   C232      1.0  0.99990  0.06314  0.33202  1.0000
  N   N58       1.0  0.00010  0.13726  0.32963  1.0000
  C   C233      1.0  0.00010  0.15639  0.32036  1.0000
  N   N59       1.0  0.99990  0.10740  0.31251  1.0000
  C   C234      1.0  0.99990  0.15636  0.30465  1.0000
  C   C235      1.0  0.00010  0.23207  0.30767  1.0000
  C   C236      1.0  0.00010  0.23210  0.31734  1.0000
  N   N60       1.0  0.99990  0.00010  0.29911  1.0000
  C   C237      1.0  0.99990  0.06311  0.29299  1.0000
  N   N61       1.0  0.99990  0.13723  0.29538  1.0000
  C   C238      1.0  0.99990  0.03892  0.28353  1.0000
  C   C239      1.0  0.00010  0.96158  0.28353  1.0000
  C   C240      1.0  0.00010  0.93742  0.29299  1.0000
  C   C241      1.0  0.00010  0.29950  0.32263  1.0000
  C   C242      1.0  0.00010  0.36892  0.31755  1.0000
  C   C243      1.0  0.00010  0.36888  0.30744  1.0000
  C   C244      1.0  0.00010  0.29941  0.30236  1.0000
  C   C245      1.0  0.00010  0.91917  0.27511  1.0000
  C   C246      1.0  0.99990  0.95978  0.26643  1.0000
  C   C247      1.0  0.99990  0.04065  0.26643  1.0000
  C   C248      1.0  0.99990  0.08130  0.27511  1.0000
  N   N62       1.0  0.99990  0.89316  0.31251  1.0000
  C   C249      1.0  0.00010  0.84419  0.30465  1.0000
  N   N63       1.0  0.00010  0.86330  0.29538  1.0000
  C   C250      1.0  0.00010  0.76848  0.30767  1.0000
  C   C251      1.0  0.99990  0.76847  0.31734  1.0000
  C   C252      1.0  0.99990  0.84419  0.32036  1.0000
  C   C253      1.0  0.99990  0.70110  0.32263  1.0000
  C   C254      1.0  0.00010  0.63166  0.31755  1.0000
  C   C255      1.0  0.00010  0.63168  0.30744  1.0000
  C   C256      1.0  0.00010  0.70114  0.30237  1.0000
  N   N64       1.0  0.99990  0.86333  0.32963  1.0000
  H   H57       1.0  0.99990  0.86464  0.34979  1.0000
  O   O57       1.0  0.99990  0.92623  0.36591  1.0000
  O   O58       1.0  0.99990  0.07432  0.36591  1.0000
  H   H58       1.0  0.00010  0.13593  0.34979  1.0000
  H   H59       1.0  0.00010  0.29864  0.32945  1.0000
  O   O59       1.0  0.00010  0.42756  0.32175  1.0000
  O   O60       1.0  0.00010  0.42747  0.30323  1.0000
  H   H60       1.0  0.00010  0.29849  0.29554  1.0000
  H   H61       1.0  0.00010  0.86460  0.27522  1.0000
  O   O61       1.0  0.99990  0.92616  0.25910  1.0000
  O   O62       1.0  0.99990  0.07426  0.25910  1.0000
  H   H62       1.0  0.99990  0.13587  0.27522  1.0000
  H   H63       1.0  0.99990  0.70198  0.32946  1.0000
  O   O63       1.0  0.00010  0.57304  0.32175  1.0000
  O   O64       1.0  0.00010  0.57307  0.30324  1.0000
  H   H64       1.0  0.00010  0.70205  0.29555  1.0000
  Ni  Ni8       1.0  0.99990  0.00010  0.31251  1.0000
  Zn  Zn1       1.0  0.99990  0.00010  0.25001  1.0000
  Zn  Zn2       1.0  0.99990  0.00010  0.75000  1.0000
  Cu  Cu1       1.0  0.00010  0.00010  0.12501  1.0000
  Cu  Cu2       1.0  0.99990  0.00010  0.62501  1.0000
  Cu  Cu3       1.0  0.00010  0.00010  0.87500  1.0000
  Cu  Cu4       1.0  0.99990  0.00010  0.37501  1.0000
  Cu  Cu5       1.0  0.50012  0.99990  0.06249  1.0000
  Cu  Cu6       1.0  0.00010  0.50022  0.56249  1.0000
  Cu  Cu7       1.0  0.50015  0.99990  0.93749  1.0000
  Cu  Cu8       1.0  0.00010  0.50029  0.43752  1.0000
  Cu  Cu9       1.0  0.00010  0.00010  0.00010  1.0000
  Cu  Cu10      1.0  0.99990  0.00010  0.50001  1.0000
  Cu  Cu11      1.0  0.50014  0.99990  0.18749  1.0000
  Cu  Cu12      1.0  0.00010  0.50028  0.68749  1.0000
  Cu  Cu13      1.0  0.50012  0.99990  0.81249  1.0000
  Cu  Cu14      1.0  0.00010  0.50028  0.31249  1.0000
