data_image0
_chemical_formula_structural       C7NCNCNC3NCNC11NCNC7NH8C16HO2H2O2H2O2H2O2HNiC7NCNCNC3NCNC11NCNC7NH8C16HO2H2O2H2O2H2O2HNiC7NCNCNC3NCNC11NCNC7NH8C16HO2H2O2H2O2H2O2HNiC7NCNCNC3NCNC11NCNC7NH8C16HO2H2O2H2O2H2O2HNiZn4Cu4
_chemical_formula_sum              "C192 N32 H64 O32 Ni4 Zn4 Cu4"
_cell_length_a       35.4572
_cell_length_b       35.4577
_cell_length_c       50.1446
_cell_angle_alpha    90.3925
_cell_angle_beta     90
_cell_angle_gamma    89.9954

_space_group_name_H-M_alt    "P 1"
_space_group_IT_number       1

loop_
  _space_group_symop_operation_xyz
  'x, y, z'

loop_
  _atom_site_type_symbol
  _atom_site_label
  _atom_site_symmetry_multiplicity
  _atom_site_fract_x
  _atom_site_fract_y
  _atom_site_fract_z
  _atom_site_occupancy
  C   C1        1.0  0.11662  0.11663  0.03351  1.0000
  C   C2        1.0  0.14318  0.14319  0.01790  1.0000
  C   C3        1.0  0.14312  0.14313  0.98697  1.0000
  C   C4        1.0  0.11652  0.11653  0.97139  1.0000
  C   C5        1.0  0.09070  0.09071  0.98755  1.0000
  C   C6        1.0  0.09075  0.09076  0.01737  1.0000
  C   C7        1.0  0.06172  0.06172  0.02673  1.0000
  N   N1        1.0  0.04338  0.04339  0.00241  1.0000
  C   C8        1.0  0.06163  0.06164  0.97814  1.0000
  N   N2        1.0  0.05309  0.05310  0.94925  1.0000
  C   C9        1.0  0.02425  0.02426  0.94074  1.0000
  N   N3        1.0  0.99990  0.99990  0.95899  1.0000
  C   C10       1.0  0.97568  0.97569  0.94070  1.0000
  C   C11       1.0  0.98505  0.98506  0.91167  1.0000
  C   C12       1.0  0.01483  0.01484  0.91167  1.0000
  N   N4        1.0  0.95676  0.95676  0.00220  1.0000
  C   C13       1.0  0.93848  0.93848  0.97792  1.0000
  N   N5        1.0  0.94689  0.94690  0.94914  1.0000
  C   C14       1.0  0.90943  0.90943  0.98729  1.0000
  C   C15       1.0  0.90945  0.90946  0.01708  1.0000
  C   C16       1.0  0.93851  0.93852  0.02648  1.0000
  C   C17       1.0  0.03098  0.03098  0.88584  1.0000
  C   C18       1.0  0.01545  0.01546  0.85927  1.0000
  C   C19       1.0  0.98456  0.98457  0.85925  1.0000
  C   C20       1.0  0.96895  0.96895  0.88581  1.0000
  C   C21       1.0  0.88362  0.88363  0.03323  1.0000
  C   C22       1.0  0.85702  0.85703  0.01768  1.0000
  C   C23       1.0  0.85702  0.85703  0.98679  1.0000
  C   C24       1.0  0.88358  0.88359  0.97119  1.0000
  N   N6        1.0  0.00010  0.00010  0.04564  1.0000
  C   C25       1.0  0.97590  0.97591  0.06386  1.0000
  N   N7        1.0  0.94704  0.94704  0.05532  1.0000
  C   C26       1.0  0.98530  0.98531  0.09295  1.0000
  C   C27       1.0  0.01511  0.01512  0.09297  1.0000
  C   C28       1.0  0.02448  0.02449  0.06394  1.0000
  C   C29       1.0  0.03123  0.03124  0.11885  1.0000
  C   C30       1.0  0.01563  0.01564  0.14543  1.0000
  C   C31       1.0  0.98472  0.98472  0.14538  1.0000
  C   C32       1.0  0.96915  0.96916  0.11876  1.0000
  N   N8        1.0  0.05332  0.05332  0.05553  1.0000
  H   H1        1.0  0.11634  0.11635  0.05614  1.0000
  H   H2        1.0  0.11617  0.11617  0.94873  1.0000
  H   H3        1.0  0.05362  0.05362  0.88618  1.0000
  H   H4        1.0  0.94632  0.94632  0.88611  1.0000
  H   H5        1.0  0.88395  0.88395  0.05585  1.0000
  H   H6        1.0  0.88389  0.88390  0.94856  1.0000
  H   H7        1.0  0.05387  0.05388  0.11857  1.0000
  H   H8        1.0  0.94650  0.94650  0.11841  1.0000
  C   C33       1.0  0.03080  0.03081  0.17204  1.0000
  C   C34       1.0  0.01540  0.01541  0.19855  1.0000
  C   C35       1.0  0.98483  0.98484  0.19850  1.0000
  C   C36       1.0  0.96950  0.96950  0.17195  1.0000
  C   C37       1.0  0.16983  0.16984  0.03306  1.0000
  C   C38       1.0  0.19634  0.19635  0.01768  1.0000
  C   C39       1.0  0.19629  0.19630  0.98711  1.0000
  C   C40       1.0  0.16973  0.16974  0.97177  1.0000
  C   C41       1.0  0.03067  0.03068  0.83267  1.0000
  C   C42       1.0  0.01533  0.01534  0.80614  1.0000
  C   C43       1.0  0.98477  0.98478  0.80614  1.0000
  C   C44       1.0  0.96940  0.96941  0.83266  1.0000
  C   C45       1.0  0.83043  0.83044  0.03290  1.0000
  C   C46       1.0  0.80392  0.80393  0.01760  1.0000
  C   C47       1.0  0.80390  0.80391  0.98706  1.0000
  C   C48       1.0  0.83041  0.83042  0.97167  1.0000
  H   H9        1.0  0.05343  0.05344  0.17212  1.0000
  O   O1        1.0  0.03024  0.03025  0.22444  1.0000
  O   O2        1.0  0.96993  0.96994  0.22437  1.0000
  H   H10       1.0  0.94684  0.94684  0.17199  1.0000
  H   H11       1.0  0.16991  0.16992  0.05570  1.0000
  O   O3        1.0  0.22225  0.22226  0.03251  1.0000
  O   O4        1.0  0.22216  0.22217  0.97220  1.0000
  H   H12       1.0  0.16977  0.16978  0.94913  1.0000
  H   H13       1.0  0.05329  0.05330  0.83261  1.0000
  O   O5        1.0  0.03022  0.03023  0.78026  1.0000
  O   O6        1.0  0.96997  0.96998  0.78027  1.0000
  H   H14       1.0  0.94678  0.94679  0.83259  1.0000
  H   H15       1.0  0.83038  0.83038  0.05550  1.0000
  O   O7        1.0  0.77804  0.77805  0.03246  1.0000
  O   O8        1.0  0.77803  0.77804  0.97224  1.0000
  H   H16       1.0  0.83034  0.83035  0.94905  1.0000
  Ni  Ni1       1.0  0.00010  0.00010  0.00231  1.0000
  C   C49       1.0  0.46888  0.53121  0.61885  1.0000
  C   C50       1.0  0.48449  0.51560  0.64541  1.0000
  C   C51       1.0  0.51541  0.48468  0.64535  1.0000
  C   C52       1.0  0.53100  0.46909  0.61874  1.0000
  C   C53       1.0  0.51484  0.48525  0.59292  1.0000
  C   C54       1.0  0.48502  0.51507  0.59297  1.0000
  C   C55       1.0  0.47566  0.52443  0.56394  1.0000
  N   N9        1.0  0.49998  0.50011  0.54560  1.0000
  C   C56       1.0  0.52425  0.47584  0.56385  1.0000
  N   N10       1.0  0.55314  0.44695  0.55531  1.0000
  C   C57       1.0  0.56165  0.43844  0.52647  1.0000
  N   N11       1.0  0.54339  0.45669  0.50220  1.0000
  C   C58       1.0  0.56168  0.43840  0.47790  1.0000
  C   C59       1.0  0.59072  0.40937  0.48727  1.0000
  C   C60       1.0  0.59072  0.40937  0.51705  1.0000
  N   N12       1.0  0.50018  0.49991  0.45897  1.0000
  C   C61       1.0  0.52447  0.47562  0.44069  1.0000
  N   N13       1.0  0.55325  0.44684  0.44911  1.0000
  C   C62       1.0  0.51509  0.48499  0.41164  1.0000
  C   C63       1.0  0.48531  0.51478  0.41167  1.0000
  C   C64       1.0  0.47591  0.52418  0.44072  1.0000
  C   C65       1.0  0.61655  0.38354  0.53320  1.0000
  C   C66       1.0  0.64313  0.35696  0.51767  1.0000
  C   C67       1.0  0.64314  0.35695  0.48678  1.0000
  C   C68       1.0  0.61658  0.38351  0.47116  1.0000
  C   C69       1.0  0.46916  0.53093  0.38583  1.0000
  C   C70       1.0  0.48470  0.51539  0.35924  1.0000
  C   C71       1.0  0.51559  0.48450  0.35923  1.0000
  C   C72       1.0  0.53120  0.46889  0.38579  1.0000
  N   N14       1.0  0.45675  0.54334  0.50239  1.0000
  C   C73       1.0  0.43852  0.56157  0.47812  1.0000
  N   N15       1.0  0.44706  0.55302  0.44925  1.0000
  C   C74       1.0  0.40944  0.59065  0.48752  1.0000
  C   C75       1.0  0.40941  0.59068  0.51733  1.0000
  C   C76       1.0  0.43844  0.56165  0.52670  1.0000
  C   C77       1.0  0.38353  0.61656  0.53345  1.0000
  C   C78       1.0  0.35695  0.64314  0.51785  1.0000
  C   C79       1.0  0.35700  0.64309  0.48693  1.0000
  C   C80       1.0  0.38362  0.61647  0.47137  1.0000
  N   N16       1.0  0.44686  0.55323  0.55554  1.0000
  H   H17       1.0  0.44625  0.55384  0.61856  1.0000
  H   H18       1.0  0.55365  0.44644  0.61839  1.0000
  H   H19       1.0  0.61621  0.38387  0.55584  1.0000
  H   H20       1.0  0.61628  0.38381  0.44853  1.0000
  H   H21       1.0  0.44654  0.55355  0.38616  1.0000
  H   H22       1.0  0.55383  0.44626  0.38610  1.0000
  H   H23       1.0  0.38382  0.61627  0.55609  1.0000
  H   H24       1.0  0.38397  0.61611  0.44871  1.0000
  C   C81       1.0  0.33034  0.66975  0.53302  1.0000
  C   C82       1.0  0.30383  0.69626  0.51762  1.0000
  C   C83       1.0  0.30388  0.69621  0.48705  1.0000
  C   C84       1.0  0.33043  0.66966  0.47171  1.0000
  C   C85       1.0  0.46932  0.53077  0.67205  1.0000
  C   C86       1.0  0.48471  0.51538  0.69857  1.0000
  C   C87       1.0  0.51528  0.48481  0.69852  1.0000
  C   C88       1.0  0.53062  0.46947  0.67196  1.0000
  C   C89       1.0  0.66972  0.33036  0.53289  1.0000
  C   C90       1.0  0.69625  0.30384  0.51755  1.0000
  C   C91       1.0  0.69625  0.30384  0.48699  1.0000
  C   C92       1.0  0.66974  0.33035  0.47162  1.0000
  C   C93       1.0  0.46948  0.53061  0.33264  1.0000
  C   C94       1.0  0.48479  0.51530  0.30614  1.0000
  C   C95       1.0  0.51533  0.48476  0.30611  1.0000
  C   C96       1.0  0.53071  0.46938  0.33262  1.0000
  H   H25       1.0  0.33026  0.66983  0.55566  1.0000
  O   O9        1.0  0.27793  0.72215  0.53246  1.0000
  O   O10       1.0  0.27801  0.72208  0.47215  1.0000
  H   H26       1.0  0.33039  0.66970  0.44905  1.0000
  H   H27       1.0  0.44668  0.55341  0.67214  1.0000
  O   O11       1.0  0.46987  0.53022  0.72448  1.0000
  O   O12       1.0  0.53019  0.46990  0.72439  1.0000
  H   H28       1.0  0.55326  0.44683  0.67200  1.0000
  H   H29       1.0  0.66979  0.33030  0.55551  1.0000
  O   O13       1.0  0.72213  0.27796  0.53244  1.0000
  O   O14       1.0  0.72213  0.27796  0.47219  1.0000
  H   H30       1.0  0.66980  0.33029  0.44900  1.0000
  H   H31       1.0  0.44688  0.55321  0.33259  1.0000
  O   O15       1.0  0.46992  0.53017  0.28025  1.0000
  O   O16       1.0  0.53015  0.46994  0.28024  1.0000
  H   H32       1.0  0.55334  0.44675  0.33255  1.0000
  Ni  Ni2       1.0  0.50008  0.50001  0.50229  1.0000
  C   C97       1.0  0.96894  0.03126  0.61885  1.0000
  C   C98       1.0  0.98455  0.01565  0.64541  1.0000
  C   C99       1.0  0.01547  0.98473  0.64535  1.0000
  C   C100      1.0  0.03106  0.96914  0.61874  1.0000
  C   C101      1.0  0.01490  0.98530  0.59292  1.0000
  C   C102      1.0  0.98508  0.01512  0.59297  1.0000
  C   C103      1.0  0.97572  0.02448  0.56394  1.0000
  N   N17       1.0  0.00010  0.00010  0.54560  1.0000
  C   C104      1.0  0.02431  0.97589  0.56385  1.0000
  N   N18       1.0  0.05320  0.94700  0.55531  1.0000
  C   C105      1.0  0.06171  0.93849  0.52647  1.0000
  N   N19       1.0  0.04345  0.95675  0.50220  1.0000
  C   C106      1.0  0.06174  0.93846  0.47790  1.0000
  C   C107      1.0  0.09078  0.90942  0.48727  1.0000
  C   C108      1.0  0.09078  0.90942  0.51705  1.0000
  N   N20       1.0  0.00010  0.99990  0.45897  1.0000
  C   C109      1.0  0.02453  0.97567  0.44069  1.0000
  N   N21       1.0  0.05331  0.94689  0.44911  1.0000
  C   C110      1.0  0.01515  0.98505  0.41164  1.0000
  C   C111      1.0  0.98537  0.01483  0.41167  1.0000
  C   C112      1.0  0.97597  0.02423  0.44072  1.0000
  C   C113      1.0  0.11661  0.88359  0.53320  1.0000
  C   C114      1.0  0.14319  0.85701  0.51767  1.0000
  C   C115      1.0  0.14320  0.85700  0.48678  1.0000
  C   C116      1.0  0.11664  0.88356  0.47116  1.0000
  C   C117      1.0  0.96922  0.03098  0.38583  1.0000
  C   C118      1.0  0.98476  0.01544  0.35924  1.0000
  C   C119      1.0  0.01565  0.98455  0.35923  1.0000
  C   C120      1.0  0.03126  0.96894  0.38579  1.0000
  N   N22       1.0  0.95681  0.04339  0.50239  1.0000
  C   C121      1.0  0.93858  0.06162  0.47812  1.0000
  N   N23       1.0  0.94712  0.05308  0.44925  1.0000
  C   C122      1.0  0.90950  0.09070  0.48752  1.0000
  C   C123      1.0  0.90947  0.09073  0.51733  1.0000
  C   C124      1.0  0.93850  0.06170  0.52670  1.0000
  C   C125      1.0  0.88359  0.11661  0.53345  1.0000
  C   C126      1.0  0.85701  0.14319  0.51785  1.0000
  C   C127      1.0  0.85706  0.14314  0.48693  1.0000
  C   C128      1.0  0.88368  0.11652  0.47137  1.0000
  N   N24       1.0  0.94692  0.05328  0.55554  1.0000
  H   H33       1.0  0.94631  0.05389  0.61856  1.0000
  H   H34       1.0  0.05371  0.94649  0.61839  1.0000
  H   H35       1.0  0.11627  0.88393  0.55584  1.0000
  H   H36       1.0  0.11634  0.88386  0.44853  1.0000
  H   H37       1.0  0.94660  0.05360  0.38616  1.0000
  H   H38       1.0  0.05389  0.94631  0.38610  1.0000
  H   H39       1.0  0.88388  0.11632  0.55609  1.0000
  H   H40       1.0  0.88403  0.11617  0.44871  1.0000
  C   C129      1.0  0.83040  0.16980  0.53302  1.0000
  C   C130      1.0  0.80389  0.19631  0.51762  1.0000
  C   C131      1.0  0.80394  0.19626  0.48705  1.0000
  C   C132      1.0  0.83049  0.16971  0.47171  1.0000
  C   C133      1.0  0.96938  0.03082  0.67205  1.0000
  C   C134      1.0  0.98477  0.01543  0.69856  1.0000
  C   C135      1.0  0.01534  0.98486  0.69852  1.0000
  C   C136      1.0  0.03068  0.96952  0.67196  1.0000
  C   C137      1.0  0.16978  0.83042  0.53289  1.0000
  C   C138      1.0  0.19631  0.80389  0.51755  1.0000
  C   C139      1.0  0.19631  0.80389  0.48699  1.0000
  C   C140      1.0  0.16980  0.83040  0.47162  1.0000
  C   C141      1.0  0.96954  0.03066  0.33264  1.0000
  C   C142      1.0  0.98485  0.01535  0.30614  1.0000
  C   C143      1.0  0.01539  0.98481  0.30611  1.0000
  C   C144      1.0  0.03077  0.96943  0.33262  1.0000
  H   H41       1.0  0.83032  0.16988  0.55566  1.0000
  O   O17       1.0  0.77799  0.22221  0.53246  1.0000
  O   O18       1.0  0.77807  0.22213  0.47215  1.0000
  H   H42       1.0  0.83045  0.16975  0.44905  1.0000
  H   H43       1.0  0.94674  0.05346  0.67214  1.0000
  O   O19       1.0  0.96993  0.03027  0.72448  1.0000
  O   O20       1.0  0.03025  0.96995  0.72439  1.0000
  H   H44       1.0  0.05332  0.94688  0.67200  1.0000
  H   H45       1.0  0.16985  0.83035  0.55551  1.0000
  O   O21       1.0  0.22219  0.77801  0.53244  1.0000
  O   O22       1.0  0.22219  0.77801  0.47219  1.0000
  H   H46       1.0  0.16986  0.83034  0.44900  1.0000
  H   H47       1.0  0.94694  0.05326  0.33259  1.0000
  O   O23       1.0  0.96998  0.03022  0.28025  1.0000
  O   O24       1.0  0.03021  0.96999  0.28024  1.0000
  H   H48       1.0  0.05340  0.94680  0.33255  1.0000
  Ni  Ni3       1.0  0.00010  0.00010  0.50229  1.0000
  C   C145      1.0  0.61657  0.61663  0.03351  1.0000
  C   C146      1.0  0.64313  0.64319  0.01790  1.0000
  C   C147      1.0  0.64307  0.64314  0.98697  1.0000
  C   C148      1.0  0.61647  0.61653  0.97139  1.0000
  C   C149      1.0  0.59065  0.59071  0.98755  1.0000
  C   C150      1.0  0.59070  0.59076  0.01737  1.0000
  C   C151      1.0  0.56166  0.56173  0.02673  1.0000
  N   N25       1.0  0.54333  0.54339  0.00241  1.0000
  C   C152      1.0  0.56158  0.56164  0.97814  1.0000
  N   N26       1.0  0.55304  0.55310  0.94925  1.0000
  C   C153      1.0  0.52420  0.52426  0.94074  1.0000
  N   N27       1.0  0.49992  0.49999  0.95899  1.0000
  C   C154      1.0  0.47563  0.47569  0.94070  1.0000
  C   C155      1.0  0.48500  0.48506  0.91167  1.0000
  C   C156      1.0  0.51478  0.51485  0.91167  1.0000
  N   N28       1.0  0.45670  0.45677  0.00220  1.0000
  C   C157      1.0  0.43842  0.43849  0.97792  1.0000
  N   N29       1.0  0.44684  0.44690  0.94914  1.0000
  C   C158      1.0  0.40937  0.40944  0.98729  1.0000
  C   C159      1.0  0.40940  0.40946  0.01708  1.0000
  C   C160      1.0  0.43845  0.43852  0.02648  1.0000
  C   C161      1.0  0.53092  0.53099  0.88584  1.0000
  C   C162      1.0  0.51539  0.51546  0.85927  1.0000
  C   C163      1.0  0.48451  0.48457  0.85925  1.0000
  C   C164      1.0  0.46889  0.46896  0.88581  1.0000
  C   C165      1.0  0.38357  0.38363  0.03323  1.0000
  C   C166      1.0  0.35697  0.35703  0.01768  1.0000
  C   C167      1.0  0.35697  0.35703  0.98679  1.0000
  C   C168      1.0  0.38353  0.38359  0.97119  1.0000
  N   N30       1.0  0.50012  0.50018  0.04564  1.0000
  C   C169      1.0  0.47585  0.47592  0.06386  1.0000
  N   N31       1.0  0.44698  0.44705  0.05532  1.0000
  C   C170      1.0  0.48525  0.48531  0.09295  1.0000
  C   C171      1.0  0.51506  0.51512  0.09297  1.0000
  C   C172      1.0  0.52443  0.52449  0.06394  1.0000
  C   C173      1.0  0.53118  0.53124  0.11885  1.0000
  C   C174      1.0  0.51558  0.51564  0.14543  1.0000
  C   C175      1.0  0.48466  0.48473  0.14538  1.0000
  C   C176      1.0  0.46910  0.46916  0.11876  1.0000
  N   N32       1.0  0.55326  0.55333  0.05553  1.0000
  H   H49       1.0  0.61629  0.61635  0.05614  1.0000
  H   H50       1.0  0.61611  0.61618  0.94874  1.0000
  H   H51       1.0  0.55356  0.55363  0.88618  1.0000
  H   H52       1.0  0.44626  0.44633  0.88611  1.0000
  H   H53       1.0  0.38389  0.38396  0.05585  1.0000
  H   H54       1.0  0.38384  0.38390  0.94856  1.0000
  H   H55       1.0  0.55382  0.55388  0.11857  1.0000
  H   H56       1.0  0.44644  0.44651  0.11841  1.0000
  C   C177      1.0  0.53075  0.53081  0.17204  1.0000
  C   C178      1.0  0.51535  0.51541  0.19855  1.0000
  C   C179      1.0  0.48478  0.48484  0.19850  1.0000
  C   C180      1.0  0.46944  0.46951  0.17195  1.0000
  C   C181      1.0  0.66978  0.66984  0.03306  1.0000
  C   C182      1.0  0.69629  0.69635  0.01768  1.0000
  C   C183      1.0  0.69624  0.69630  0.98711  1.0000
  C   C184      1.0  0.66968  0.66974  0.97177  1.0000
  C   C185      1.0  0.53062  0.53068  0.83267  1.0000
  C   C186      1.0  0.51528  0.51535  0.80614  1.0000
  C   C187      1.0  0.48472  0.48478  0.80614  1.0000
  C   C188      1.0  0.46935  0.46941  0.83266  1.0000
  C   C189      1.0  0.33038  0.33044  0.03291  1.0000
  C   C190      1.0  0.30387  0.30394  0.01760  1.0000
  C   C191      1.0  0.30385  0.30391  0.98706  1.0000
  C   C192      1.0  0.33036  0.33042  0.97168  1.0000
  H   H57       1.0  0.55338  0.55345  0.17212  1.0000
  O   O25       1.0  0.53019  0.53025  0.22444  1.0000
  O   O26       1.0  0.46988  0.46994  0.22437  1.0000
  H   H58       1.0  0.44678  0.44685  0.17199  1.0000
  H   H59       1.0  0.66986  0.66992  0.05570  1.0000
  O   O27       1.0  0.72220  0.72226  0.03252  1.0000
  O   O28       1.0  0.72211  0.72217  0.97220  1.0000
  H   H60       1.0  0.66972  0.66979  0.94913  1.0000
  H   H61       1.0  0.55324  0.55330  0.83261  1.0000
  O   O29       1.0  0.53017  0.53023  0.78026  1.0000
  O   O30       1.0  0.46992  0.46998  0.78027  1.0000
  H   H62       1.0  0.44673  0.44679  0.83259  1.0000
  H   H63       1.0  0.33032  0.33039  0.05550  1.0000
  O   O31       1.0  0.27799  0.27805  0.03247  1.0000
  O   O32       1.0  0.27798  0.27804  0.97224  1.0000
  H   H64       1.0  0.33029  0.33035  0.94905  1.0000
  Ni  Ni4       1.0  0.50002  0.50009  0.00231  1.0000
  Zn  Zn1       1.0  0.00010  0.00010  0.25232  1.0000
  Zn  Zn2       1.0  0.50003  0.50008  0.75235  1.0000
  Zn  Zn3       1.0  0.50003  0.50008  0.25232  1.0000
  Zn  Zn4       1.0  0.00010  0.00010  0.75234  1.0000
  Cu  Cu1       1.0  0.25012  0.25013  0.00236  1.0000
  Cu  Cu2       1.0  0.25012  0.75009  0.50230  1.0000
  Cu  Cu3       1.0  0.75006  0.75013  0.00236  1.0000
  Cu  Cu4       1.0  0.75005  0.25003  0.50230  1.0000
