data_image0
_chemical_formula_structural       C7NCNCNC3NCNC11NCNC7NHO2H2O2H2O2H2O2HNiC7NCNCNC3NCNC11NCNC7NHO2H2O2H2O2H2O2HNiC7NCNCNC3NCNC11NCNC7NHO2H2O2H2O2H2O2HNiC7NCNCNC3NCNC11NCNC7NHO2H2O2H2O2H2O2HNiZn4Cu4
_chemical_formula_sum              "C128 N32 H32 O32 Ni4 Zn4 Cu4"
_cell_length_a       27.2092
_cell_length_b       27.2092
_cell_length_c       38.4795
_cell_angle_alpha    90.0043
_cell_angle_beta     90
_cell_angle_gamma    90.0009

_space_group_name_H-M_alt    "P 1"
_space_group_IT_number       1

loop_
  _space_group_symop_operation_xyz
  'x, y, z'

loop_
  _atom_site_type_symbol
  _atom_site_label
  _atom_site_symmetry_multiplicity
  _atom_site_fract_x
  _atom_site_fract_y
  _atom_site_fract_z
  _atom_site_occupancy
  C   C1        1.0  0.95934  0.95989  0.15124  1.0000
  C   C2        1.0  0.97974  0.98011  0.18597  1.0000
  C   C3        1.0  0.02030  0.02043  0.18598  1.0000
  C   C4        1.0  0.04068  0.04069  0.15125  1.0000
  C   C5        1.0  0.01941  0.01957  0.11756  1.0000
  C   C6        1.0  0.98059  0.98105  0.11756  1.0000
  C   C7        1.0  0.96846  0.96901  0.07971  1.0000
  N   N1        1.0  0.00010  0.00010  0.05522  1.0000
  C   C8        1.0  0.03155  0.03161  0.07971  1.0000
  N   N2        1.0  0.06878  0.06851  0.07015  1.0000
  C   C9        1.0  0.07832  0.07810  0.03308  1.0000
  N   N3        1.0  0.05371  0.05373  0.00166  1.0000
  C   C10       1.0  0.07814  0.07827  0.97024  1.0000
  C   C11       1.0  0.11611  0.11601  0.98232  1.0000
  C   C12       1.0  0.11621  0.11593  0.02099  1.0000
  N   N4        1.0  0.00010  0.00010  0.94810  1.0000
  C   C13       1.0  0.03139  0.03177  0.92361  1.0000
  N   N5        1.0  0.06841  0.06888  0.93317  1.0000
  C   C14       1.0  0.01937  0.01961  0.88575  1.0000
  C   C15       1.0  0.98085  0.98079  0.88575  1.0000
  C   C16       1.0  0.96881  0.96867  0.92361  1.0000
  C   C17       1.0  0.14997  0.14956  0.04217  1.0000
  C   C18       1.0  0.18468  0.18428  0.02184  1.0000
  C   C19       1.0  0.18463  0.18429  0.98140  1.0000
  C   C20       1.0  0.14980  0.14966  0.96110  1.0000
  C   C21       1.0  0.95971  0.95952  0.85207  1.0000
  C   C22       1.0  0.97991  0.97994  0.81735  1.0000
  C   C23       1.0  0.02023  0.02050  0.81735  1.0000
  C   C24       1.0  0.04050  0.04087  0.85207  1.0000
  N   N6        1.0  0.94655  0.94665  0.00166  1.0000
  C   C25       1.0  0.92223  0.92200  0.97023  1.0000
  N   N7        1.0  0.93191  0.93144  0.93317  1.0000
  C   C26       1.0  0.88437  0.88416  0.98231  1.0000
  C   C27       1.0  0.88419  0.88432  0.02098  1.0000
  C   C28       1.0  0.92193  0.92229  0.03308  1.0000
  C   C29       1.0  0.85050  0.85063  0.04217  1.0000
  C   C30       1.0  0.81594  0.81575  0.02184  1.0000
  C   C31       1.0  0.81606  0.81566  0.98140  1.0000
  C   C32       1.0  0.85081  0.85038  0.96109  1.0000
  N   N8        1.0  0.93132  0.93204  0.07014  1.0000
  H   H1        1.0  0.93197  0.93269  0.15079  1.0000
  O   O1        1.0  0.96290  0.96333  0.21528  1.0000
  O   O2        1.0  0.03715  0.03718  0.21529  1.0000
  H   H2        1.0  0.06806  0.06788  0.15081  1.0000
  H   H3        1.0  0.14957  0.14910  0.06946  1.0000
  O   O3        1.0  0.21401  0.21359  0.03863  1.0000
  O   O4        1.0  0.21399  0.21353  0.96458  1.0000
  H   H4        1.0  0.14930  0.14924  0.93382  1.0000
  H   H5        1.0  0.93252  0.93215  0.85252  1.0000
  O   O5        1.0  0.96309  0.96314  0.78805  1.0000
  O   O6        1.0  0.03696  0.03737  0.78804  1.0000
  H   H6        1.0  0.06771  0.06822  0.85251  1.0000
  H   H7        1.0  0.85085  0.85116  0.06945  1.0000
  O   O7        1.0  0.78669  0.78638  0.03863  1.0000
  O   O8        1.0  0.78684  0.78627  0.96458  1.0000
  H   H8        1.0  0.85136  0.85074  0.93381  1.0000
  Ni  Ni1       1.0  0.00010  0.00010  0.00166  1.0000
  C   C33       1.0  0.35090  0.65012  0.46105  1.0000
  C   C34       1.0  0.31608  0.68477  0.48136  1.0000
  C   C35       1.0  0.31596  0.68465  0.52180  1.0000
  C   C36       1.0  0.35062  0.64986  0.54212  1.0000
  C   C37       1.0  0.38438  0.61625  0.52093  1.0000
  C   C38       1.0  0.38454  0.61640  0.48225  1.0000
  C   C39       1.0  0.42244  0.57859  0.47017  1.0000
  N   N9        1.0  0.44680  0.55399  0.50160  1.0000
  C   C40       1.0  0.42219  0.57835  0.53302  1.0000
  N   N10       1.0  0.43159  0.56862  0.57008  1.0000
  C   C41       1.0  0.46867  0.53158  0.57965  1.0000
  N   N11       1.0  0.50021  0.50028  0.55516  1.0000
  C   C42       1.0  0.53170  0.46891  0.57964  1.0000
  C   C43       1.0  0.51950  0.48087  0.61749  1.0000
  C   C44       1.0  0.48073  0.51945  0.61751  1.0000
  N   N12       1.0  0.55385  0.44679  0.50160  1.0000
  C   C45       1.0  0.57845  0.42240  0.53302  1.0000
  N   N13       1.0  0.56893  0.43202  0.57008  1.0000
  C   C46       1.0  0.61623  0.38448  0.52093  1.0000
  C   C47       1.0  0.61608  0.38433  0.48226  1.0000
  C   C48       1.0  0.57818  0.42215  0.47017  1.0000
  C   C49       1.0  0.45949  0.54058  0.65120  1.0000
  C   C50       1.0  0.47983  0.52025  0.68592  1.0000
  C   C51       1.0  0.52029  0.47984  0.68590  1.0000
  C   C52       1.0  0.54069  0.45964  0.65117  1.0000
  C   C53       1.0  0.64970  0.35059  0.46105  1.0000
  C   C54       1.0  0.68453  0.31597  0.48136  1.0000
  C   C55       1.0  0.68465  0.31609  0.52180  1.0000
  C   C56       1.0  0.64998  0.35086  0.54212  1.0000
  N   N14       1.0  0.50026  0.50031  0.44804  1.0000
  C   C57       1.0  0.53152  0.46873  0.42355  1.0000
  N   N15       1.0  0.56846  0.43154  0.43311  1.0000
  C   C58       1.0  0.51945  0.48081  0.38570  1.0000
  C   C59       1.0  0.48095  0.51966  0.38569  1.0000
  C   C60       1.0  0.46897  0.53186  0.42355  1.0000
  C   C61       1.0  0.45976  0.54084  0.35200  1.0000
  C   C62       1.0  0.47993  0.52035  0.31729  1.0000
  C   C63       1.0  0.52026  0.47980  0.31730  1.0000
  C   C64       1.0  0.54056  0.45949  0.35203  1.0000
  N   N16       1.0  0.43209  0.56911  0.43311  1.0000
  H   H9        1.0  0.35143  0.64975  0.43377  1.0000
  O   O9        1.0  0.28681  0.71410  0.46455  1.0000
  O   O10       1.0  0.28660  0.71391  0.53860  1.0000
  H   H10       1.0  0.35097  0.64932  0.56941  1.0000
  H   H11       1.0  0.43217  0.56783  0.65077  1.0000
  O   O11       1.0  0.46303  0.53703  0.71523  1.0000
  O   O12       1.0  0.53705  0.46296  0.71520  1.0000
  H   H12       1.0  0.56801  0.43240  0.65071  1.0000
  H   H13       1.0  0.64916  0.35094  0.43377  1.0000
  O   O13       1.0  0.71384  0.28668  0.46455  1.0000
  O   O14       1.0  0.71403  0.28686  0.53860  1.0000
  H   H14       1.0  0.64962  0.35137  0.56940  1.0000
  H   H15       1.0  0.43257  0.56822  0.35244  1.0000
  O   O15       1.0  0.46308  0.53709  0.28797  1.0000
  O   O16       1.0  0.53700  0.46291  0.28799  1.0000
  H   H16       1.0  0.56775  0.43211  0.35249  1.0000
  Ni  Ni2       1.0  0.50034  0.50041  0.50160  1.0000
  C   C65       1.0  0.85083  0.15005  0.46109  1.0000
  C   C66       1.0  0.81601  0.18470  0.48141  1.0000
  C   C67       1.0  0.81589  0.18458  0.52184  1.0000
  C   C68       1.0  0.85055  0.14979  0.54217  1.0000
  C   C69       1.0  0.88431  0.11618  0.52097  1.0000
  C   C70       1.0  0.88447  0.11633  0.48230  1.0000
  C   C71       1.0  0.92237  0.07852  0.47022  1.0000
  N   N17       1.0  0.94673  0.05392  0.50164  1.0000
  C   C72       1.0  0.92212  0.07828  0.53306  1.0000
  N   N18       1.0  0.93152  0.06856  0.57013  1.0000
  C   C73       1.0  0.96860  0.03151  0.57969  1.0000
  N   N19       1.0  0.00010  0.00010  0.55520  1.0000
  C   C74       1.0  0.03163  0.96884  0.57968  1.0000
  C   C75       1.0  0.01943  0.98081  0.61754  1.0000
  C   C76       1.0  0.98066  0.01939  0.61755  1.0000
  N   N20       1.0  0.05378  0.94672  0.50164  1.0000
  C   C77       1.0  0.07838  0.92233  0.53306  1.0000
  N   N21       1.0  0.06886  0.93195  0.57012  1.0000
  C   C78       1.0  0.11616  0.88441  0.52097  1.0000
  C   C79       1.0  0.11601  0.88426  0.48230  1.0000
  C   C80       1.0  0.07811  0.92208  0.47022  1.0000
  C   C81       1.0  0.95942  0.04051  0.65125  1.0000
  C   C82       1.0  0.97976  0.02018  0.68596  1.0000
  C   C83       1.0  0.02022  0.97978  0.68594  1.0000
  C   C84       1.0  0.04062  0.95957  0.65121  1.0000
  C   C85       1.0  0.14963  0.85052  0.46110  1.0000
  C   C86       1.0  0.18446  0.81591  0.48141  1.0000
  C   C87       1.0  0.18458  0.81603  0.52184  1.0000
  C   C88       1.0  0.14991  0.85079  0.54216  1.0000
  N   N22       1.0  0.00010  0.00010  0.44808  1.0000
  C   C89       1.0  0.03145  0.96866  0.42360  1.0000
  N   N23       1.0  0.06839  0.93148  0.43316  1.0000
  C   C90       1.0  0.01938  0.98074  0.38574  1.0000
  C   C91       1.0  0.98088  0.01959  0.38574  1.0000
  C   C92       1.0  0.96890  0.03179  0.42359  1.0000
  C   C93       1.0  0.95969  0.04077  0.35205  1.0000
  C   C94       1.0  0.97986  0.02028  0.31733  1.0000
  C   C95       1.0  0.02019  0.97973  0.31734  1.0000
  C   C96       1.0  0.04049  0.95942  0.35207  1.0000
  N   N24       1.0  0.93202  0.06904  0.43316  1.0000
  H   H17       1.0  0.85136  0.14969  0.43381  1.0000
  O   O17       1.0  0.78674  0.21403  0.46460  1.0000
  O   O18       1.0  0.78653  0.21384  0.53865  1.0000
  H   H18       1.0  0.85090  0.14926  0.56945  1.0000
  H   H19       1.0  0.93210  0.06776  0.65082  1.0000
  O   O19       1.0  0.96296  0.03696  0.71528  1.0000
  O   O20       1.0  0.03698  0.96289  0.71524  1.0000
  H   H20       1.0  0.06794  0.93233  0.65075  1.0000
  H   H21       1.0  0.14909  0.85088  0.43381  1.0000
  O   O21       1.0  0.21377  0.78661  0.46460  1.0000
  O   O22       1.0  0.21396  0.78679  0.53865  1.0000
  H   H22       1.0  0.14955  0.85130  0.56945  1.0000
  H   H23       1.0  0.93250  0.06815  0.35248  1.0000
  O   O23       1.0  0.96301  0.03702  0.28802  1.0000
  O   O24       1.0  0.03693  0.96284  0.28804  1.0000
  H   H24       1.0  0.06768  0.93205  0.35253  1.0000
  Ni  Ni3       1.0  0.00010  0.00010  0.50164  1.0000
  C   C97       1.0  0.54044  0.54096  0.85200  1.0000
  C   C98       1.0  0.52021  0.52057  0.81727  1.0000
  C   C99       1.0  0.47989  0.48000  0.81727  1.0000
  C   C100      1.0  0.45963  0.45962  0.85199  1.0000
  C   C101      1.0  0.48075  0.48089  0.88568  1.0000
  C   C102      1.0  0.51927  0.51972  0.88568  1.0000
  C   C103      1.0  0.53131  0.53184  0.92354  1.0000
  N   N25       1.0  0.50001  0.50030  0.94802  1.0000
  C   C104      1.0  0.46871  0.46875  0.92353  1.0000
  N   N26       1.0  0.43181  0.43153  0.93309  1.0000
  C   C105      1.0  0.42222  0.42198  0.97016  1.0000
  N   N27       1.0  0.44659  0.44659  0.00158  1.0000
  C   C106      1.0  0.42205  0.42216  0.03301  1.0000
  C   C107      1.0  0.38432  0.38419  0.02093  1.0000
  C   C108      1.0  0.38440  0.38409  0.98225  1.0000
  N   N28       1.0  0.50008  0.50023  0.05514  1.0000
  C   C109      1.0  0.46856  0.46891  0.07964  1.0000
  N   N29       1.0  0.43144  0.43190  0.07007  1.0000
  C   C110      1.0  0.48071  0.48093  0.11749  1.0000
  C   C111      1.0  0.51954  0.51946  0.11749  1.0000
  C   C112      1.0  0.53166  0.53150  0.07963  1.0000
  C   C113      1.0  0.35076  0.35034  0.96107  1.0000
  C   C114      1.0  0.31604  0.31563  0.98140  1.0000
  C   C115      1.0  0.31603  0.31567  0.02184  1.0000
  C   C116      1.0  0.35066  0.35050  0.04214  1.0000
  C   C117      1.0  0.54080  0.54059  0.15117  1.0000
  C   C118      1.0  0.52038  0.52039  0.18589  1.0000
  C   C119      1.0  0.47983  0.48008  0.18589  1.0000
  C   C120      1.0  0.45946  0.45980  0.15117  1.0000
  N   N30       1.0  0.55367  0.55375  0.00159  1.0000
  C   C121      1.0  0.57832  0.57807  0.03301  1.0000
  N   N31       1.0  0.56888  0.56839  0.07007  1.0000
  C   C122      1.0  0.61616  0.61594  0.02093  1.0000
  C   C123      1.0  0.61600  0.61612  0.98226  1.0000
  C   C124      1.0  0.57803  0.57837  0.97017  1.0000
  C   C125      1.0  0.64969  0.64980  0.96107  1.0000
  C   C126      1.0  0.68457  0.68436  0.98141  1.0000
  C   C127      1.0  0.68467  0.68424  0.02184  1.0000
  C   C128      1.0  0.64995  0.64950  0.04215  1.0000
  N   N32       1.0  0.56828  0.56899  0.93310  1.0000
  H   H25       1.0  0.56764  0.56833  0.85245  1.0000
  O   O25       1.0  0.53699  0.53740  0.78797  1.0000
  O   O26       1.0  0.46314  0.46315  0.78795  1.0000
  H   H26       1.0  0.43244  0.43224  0.85244  1.0000
  H   H27       1.0  0.35122  0.35073  0.93379  1.0000
  O   O27       1.0  0.28674  0.28630  0.96461  1.0000
  O   O28       1.0  0.28679  0.28631  0.03866  1.0000
  H   H28       1.0  0.35108  0.35100  0.06942  1.0000
  H   H29       1.0  0.56817  0.56778  0.15072  1.0000
  O   O29       1.0  0.53718  0.53721  0.21520  1.0000
  O   O30       1.0  0.46295  0.46334  0.21520  1.0000
  H   H30       1.0  0.43210  0.43259  0.15074  1.0000
  H   H31       1.0  0.64917  0.64946  0.93379  1.0000
  O   O31       1.0  0.71394  0.71362  0.96461  1.0000
  O   O32       1.0  0.71405  0.71346  0.03866  1.0000
  H   H32       1.0  0.64958  0.64895  0.06943  1.0000
  Ni  Ni4       1.0  0.50003  0.50028  0.00158  1.0000
  Zn  Zn1       1.0  0.99990  0.00010  0.25165  1.0000
  Zn  Zn2       1.0  0.50005  0.50014  0.75159  1.0000
  Zn  Zn3       1.0  0.50005  0.50014  0.25159  1.0000
  Zn  Zn4       1.0  0.99990  0.00010  0.75165  1.0000
  Cu  Cu1       1.0  0.25038  0.24994  0.00162  1.0000
  Cu  Cu2       1.0  0.25028  0.75035  0.50160  1.0000
  Cu  Cu3       1.0  0.75038  0.74992  0.00162  1.0000
  Cu  Cu4       1.0  0.75028  0.25035  0.50160  1.0000
