data_image0
_chemical_formula_structural       C7NCNCNC3NCNC11NCNC7NH8C16HO2H2O2H2O2H2O2HNiC7NCNCNC3NCNC11NCNC7NH8C16HO2H2O2H2O2H2O2HNiZn2Cu2
_chemical_formula_sum              "C96 N16 H32 O16 Ni2 Zn2 Cu2"
_cell_length_a       25.0712
_cell_length_b       25.0733
_cell_length_c       50.1445
_cell_angle_alpha    90.2778
_cell_angle_beta     90.2778
_cell_angle_gamma    89.9991

_space_group_name_H-M_alt    "P 1"
_space_group_IT_number       1

loop_
  _space_group_symop_operation_xyz
  'x, y, z'

loop_
  _atom_site_type_symbol
  _atom_site_label
  _atom_site_symmetry_multiplicity
  _atom_site_fract_x
  _atom_site_fract_y
  _atom_site_fract_z
  _atom_site_occupancy
  C   C1        1.0  0.93778  0.00010  0.88694  1.0000
  C   C2        1.0  0.96899  0.00010  0.86038  1.0000
  C   C3        1.0  0.03084  0.00010  0.86044  1.0000
  C   C4        1.0  0.06202  0.00010  0.88705  1.0000
  C   C5        1.0  0.02969  0.00010  0.91287  1.0000
  C   C6        1.0  0.97005  0.00010  0.91282  1.0000
  C   C7        1.0  0.95134  0.00010  0.94185  1.0000
  N   N1        1.0  0.99990  0.00010  0.96019  1.0000
  C   C8        1.0  0.04852  0.00010  0.94194  1.0000
  N   N2        1.0  0.10629  0.00010  0.95048  1.0000
  C   C9        1.0  0.12332  0.00010  0.97932  1.0000
  N   N3        1.0  0.08681  0.00010  0.00359  1.0000
  C   C10       1.0  0.12339  0.00010  0.02789  1.0000
  C   C11       1.0  0.18145  0.00010  0.01852  1.0000
  C   C12       1.0  0.18146  0.00010  0.98873  1.0000
  N   N4        1.0  0.00010  0.00010  0.04682  1.0000
  C   C13       1.0  0.04895  0.00010  0.06510  1.0000
  N   N5        1.0  0.10652  0.00010  0.05668  1.0000
  C   C14       1.0  0.03021  0.00010  0.09415  1.0000
  C   C15       1.0  0.97063  0.00010  0.09412  1.0000
  C   C16       1.0  0.95184  0.00010  0.06506  1.0000
  C   C17       1.0  0.23312  0.00010  0.97259  1.0000
  C   C18       1.0  0.28627  0.00010  0.98812  1.0000
  C   C19       1.0  0.28631  0.00010  0.01901  1.0000
  C   C20       1.0  0.23319  0.00010  0.03463  1.0000
  C   C21       1.0  0.93834  0.00010  0.11996  1.0000
  C   C22       1.0  0.96942  0.00010  0.14655  1.0000
  C   C23       1.0  0.03121  0.00010  0.14656  1.0000
  C   C24       1.0  0.06242  0.00010  0.12000  1.0000
  N   N6        1.0  0.91352  0.00010  0.00340  1.0000
  C   C25       1.0  0.87706  0.00010  0.02767  1.0000
  N   N7        1.0  0.89415  0.00010  0.05654  1.0000
  C   C26       1.0  0.81889  0.00010  0.01827  1.0000
  C   C27       1.0  0.81884  0.00010  0.98846  1.0000
  C   C28       1.0  0.87691  0.00010  0.97908  1.0000
  C   C29       1.0  0.76708  0.00010  0.97234  1.0000
  C   C30       1.0  0.71393  0.00010  0.98794  1.0000
  C   C31       1.0  0.71402  0.00010  0.01885  1.0000
  C   C32       1.0  0.76727  0.00010  0.03442  1.0000
  N   N8        1.0  0.89373  0.00010  0.95025  1.0000
  H   H1        1.0  0.89251  0.00010  0.88723  1.0000
  H   H2        1.0  0.10733  0.00010  0.88740  1.0000
  H   H3        1.0  0.23245  0.00010  0.94995  1.0000
  H   H4        1.0  0.23258  0.00010  0.05726  1.0000
  H   H5        1.0  0.89309  0.00010  0.11963  1.0000
  H   H6        1.0  0.10769  0.00010  0.11969  1.0000
  H   H7        1.0  0.76765  0.00010  0.94970  1.0000
  H   H8        1.0  0.76797  0.00010  0.05707  1.0000
  C   C33       1.0  0.66071  0.00010  0.97277  1.0000
  C   C34       1.0  0.60769  0.00010  0.98817  1.0000
  C   C35       1.0  0.60777  0.00010  0.01874  1.0000
  C   C36       1.0  0.66088  0.00010  0.03407  1.0000
  C   C37       1.0  0.93866  0.00010  0.83373  1.0000
  C   C38       1.0  0.96943  0.00010  0.80722  1.0000
  C   C39       1.0  0.03058  0.00010  0.80727  1.0000
  C   C40       1.0  0.06126  0.00010  0.83383  1.0000
  C   C41       1.0  0.33947  0.00010  0.97290  1.0000
  C   C42       1.0  0.39252  0.00010  0.98824  1.0000
  C   C43       1.0  0.39252  0.00010  0.01880  1.0000
  C   C44       1.0  0.33950  0.00010  0.03417  1.0000
  C   C45       1.0  0.93898  0.00010  0.17315  1.0000
  C   C46       1.0  0.96960  0.00010  0.19965  1.0000
  C   C47       1.0  0.03067  0.00010  0.19968  1.0000
  C   C48       1.0  0.06145  0.00010  0.17317  1.0000
  H   H9        1.0  0.66054  0.00010  0.95013  1.0000
  O   O1        1.0  0.55589  0.00010  0.97333  1.0000
  O   O2        1.0  0.55604  0.00010  0.03364  1.0000
  H   H10       1.0  0.66080  0.00010  0.05674  1.0000
  H   H11       1.0  0.89338  0.00010  0.83365  1.0000
  O   O3        1.0  0.93976  0.00010  0.78131  1.0000
  O   O4        1.0  0.06040  0.00010  0.78140  1.0000
  H   H12       1.0  0.10654  0.00010  0.83379  1.0000
  H   H13       1.0  0.33959  0.00010  0.95028  1.0000
  O   O5        1.0  0.44428  0.00010  0.97335  1.0000
  O   O6        1.0  0.44428  0.00010  0.03360  1.0000
  H   H14       1.0  0.33963  0.00010  0.05679  1.0000
  H   H15       1.0  0.89378  0.00010  0.17320  1.0000
  O   O7        1.0  0.93986  0.00010  0.22553  1.0000
  O   O8        1.0  0.06031  0.00010  0.22555  1.0000
  H   H16       1.0  0.10670  0.00010  0.17324  1.0000
  Ni  Ni1       1.0  0.00010  0.00010  0.00349  1.0000
  C   C49       1.0  0.00010  0.23315  0.53463  1.0000
  C   C50       1.0  0.00010  0.28626  0.51902  1.0000
  C   C51       1.0  0.00010  0.28615  0.48809  1.0000
  C   C52       1.0  0.00010  0.23294  0.47251  1.0000
  C   C53       1.0  0.00010  0.18130  0.48867  1.0000
  C   C54       1.0  0.00010  0.18140  0.51849  1.0000
  C   C55       1.0  0.00010  0.12333  0.52785  1.0000
  N   N9        1.0  0.00010  0.08666  0.50353  1.0000
  C   C56       1.0  0.00010  0.12316  0.47926  1.0000
  N   N10       1.0  0.00010  0.10608  0.45037  1.0000
  C   C57       1.0  0.00010  0.04840  0.44186  1.0000
  N   N11       1.0  0.00010  0.99990  0.46011  1.0000
  C   C58       1.0  0.00010  0.95126  0.44182  1.0000
  C   C59       1.0  0.00010  0.97000  0.41279  1.0000
  C   C60       1.0  0.00010  0.02957  0.41279  1.0000
  N   N12       1.0  0.00010  0.91341  0.50332  1.0000
  C   C61       1.0  0.00010  0.87685  0.47904  1.0000
  N   N13       1.0  0.00010  0.89368  0.45026  1.0000
  C   C62       1.0  0.00010  0.81875  0.48841  1.0000
  C   C63       1.0  0.00010  0.81880  0.51820  1.0000
  C   C64       1.0  0.00010  0.87691  0.52760  1.0000
  C   C65       1.0  0.00010  0.06185  0.38696  1.0000
  C   C66       1.0  0.00010  0.03079  0.36039  1.0000
  C   C67       1.0  0.00010  0.96902  0.36037  1.0000
  C   C68       1.0  0.00010  0.93779  0.38693  1.0000
  C   C69       1.0  0.00010  0.76714  0.53435  1.0000
  C   C70       1.0  0.00010  0.71395  0.51880  1.0000
  C   C71       1.0  0.00010  0.71394  0.48791  1.0000
  C   C72       1.0  0.00010  0.76706  0.47231  1.0000
  N   N14       1.0  0.00010  0.00010  0.54676  1.0000
  C   C73       1.0  0.00010  0.95171  0.56498  1.0000
  N   N15       1.0  0.00010  0.89397  0.55644  1.0000
  C   C74       1.0  0.00010  0.97051  0.59407  1.0000
  C   C75       1.0  0.00010  0.03013  0.59409  1.0000
  C   C76       1.0  0.00010  0.04887  0.56506  1.0000
  C   C77       1.0  0.00010  0.06236  0.61997  1.0000
  C   C78       1.0  0.00010  0.03116  0.64655  1.0000
  C   C79       1.0  0.00010  0.96933  0.64650  1.0000
  C   C80       1.0  0.00010  0.93820  0.61988  1.0000
  N   N16       1.0  0.00010  0.10653  0.55665  1.0000
  H   H17       1.0  0.00010  0.23258  0.55726  1.0000
  H   H18       1.0  0.00010  0.23223  0.44986  1.0000
  H   H19       1.0  0.00010  0.10713  0.38730  1.0000
  H   H20       1.0  0.00010  0.89253  0.38723  1.0000
  H   H21       1.0  0.00010  0.76779  0.55697  1.0000
  H   H22       1.0  0.00010  0.76768  0.44968  1.0000
  H   H23       1.0  0.00010  0.10764  0.61969  1.0000
  H   H24       1.0  0.00010  0.89289  0.61953  1.0000
  C   C81       1.0  0.00010  0.06150  0.67316  1.0000
  C   C82       1.0  0.00010  0.03070  0.69967  1.0000
  C   C83       1.0  0.00010  0.96956  0.69962  1.0000
  C   C84       1.0  0.00010  0.93889  0.67307  1.0000
  C   C85       1.0  0.00010  0.33956  0.53418  1.0000
  C   C86       1.0  0.00010  0.39258  0.51880  1.0000
  C   C87       1.0  0.00010  0.39248  0.48823  1.0000
  C   C88       1.0  0.00010  0.33936  0.47289  1.0000
  C   C89       1.0  0.00010  0.06124  0.33379  1.0000
  C   C90       1.0  0.00010  0.03057  0.30726  1.0000
  C   C91       1.0  0.00010  0.96944  0.30726  1.0000
  C   C92       1.0  0.00010  0.93870  0.33378  1.0000
  C   C93       1.0  0.00010  0.66076  0.53402  1.0000
  C   C94       1.0  0.00010  0.60775  0.51872  1.0000
  C   C95       1.0  0.00010  0.60770  0.48818  1.0000
  C   C96       1.0  0.00010  0.66072  0.47279  1.0000
  H   H25       1.0  0.00010  0.10677  0.67324  1.0000
  O   O9        1.0  0.00010  0.06039  0.72556  1.0000
  O   O10       1.0  0.00010  0.93976  0.72549  1.0000
  H   H26       1.0  0.00010  0.89357  0.67311  1.0000
  H   H27       1.0  0.00010  0.33972  0.55682  1.0000
  O   O11       1.0  0.00010  0.44440  0.53364  1.0000
  O   O12       1.0  0.00010  0.44422  0.47332  1.0000
  H   H28       1.0  0.00010  0.33945  0.45025  1.0000
  H   H29       1.0  0.00010  0.10648  0.33373  1.0000
  O   O13       1.0  0.00010  0.06034  0.28138  1.0000
  O   O14       1.0  0.00010  0.93984  0.28138  1.0000
  H   H30       1.0  0.00010  0.89346  0.33371  1.0000
  H   H31       1.0  0.00010  0.66065  0.55662  1.0000
  O   O15       1.0  0.00010  0.55599  0.53358  1.0000
  O   O16       1.0  0.00010  0.55596  0.47336  1.0000
  H   H32       1.0  0.00010  0.66058  0.45017  1.0000
  Ni  Ni2       1.0  0.00010  0.00010  0.50343  1.0000
  Zn  Zn1       1.0  0.00010  0.00010  0.25346  1.0000
  Zn  Zn2       1.0  0.00010  0.00010  0.75344  1.0000
  Cu  Cu1       1.0  0.50012  0.00010  0.00349  1.0000
  Cu  Cu2       1.0  0.00010  0.50013  0.50348  1.0000
