data_image0
_chemical_formula_structural       C7NCNCNC3NCNC11NCNC7NHO2H2O2H2O2H2O2HNiC7NCNCNC3NCNC11NCNC7NHO2H2O2H2O2H2O2HNiZn2Cu2
_chemical_formula_sum              "C64 N16 H16 O16 Ni2 Zn2 Cu2"
_cell_length_a       19.2396
_cell_length_b       19.2396
_cell_length_c       38.4798
_cell_angle_alpha    90.0033
_cell_angle_beta     90.0033
_cell_angle_gamma    90

_space_group_name_H-M_alt    "P 1"
_space_group_IT_number       1

loop_
  _space_group_symop_operation_xyz
  'x, y, z'

loop_
  _atom_site_type_symbol
  _atom_site_label
  _atom_site_symmetry_multiplicity
  _atom_site_fract_x
  _atom_site_fract_y
  _atom_site_fract_z
  _atom_site_occupancy
  C   C1        1.0  0.91902  0.00010  0.14971  1.0000
  C   C2        1.0  0.95965  0.00010  0.18443  1.0000
  C   C3        1.0  0.04053  0.00010  0.18444  1.0000
  C   C4        1.0  0.08117  0.00010  0.14971  1.0000
  C   C5        1.0  0.03878  0.00010  0.11603  1.0000
  C   C6        1.0  0.96143  0.00010  0.11603  1.0000
  C   C7        1.0  0.93727  0.00010  0.07817  1.0000
  N   N1        1.0  0.00010  0.00010  0.05369  1.0000
  C   C8        1.0  0.06296  0.00010  0.07818  1.0000
  N   N2        1.0  0.13709  0.99990  0.06861  1.0000
  C   C9        1.0  0.15623  0.99990  0.03155  1.0000
  N   N3        1.0  0.10724  0.00010  0.00010  1.0000
  C   C10       1.0  0.15621  0.00010  0.96870  1.0000
  C   C11       1.0  0.23191  0.00010  0.98078  1.0000
  C   C12       1.0  0.23194  0.99990  0.01946  1.0000
  N   N4        1.0  0.00010  0.00010  0.94656  1.0000
  C   C13       1.0  0.06296  0.00010  0.92207  1.0000
  N   N5        1.0  0.13708  0.00010  0.93164  1.0000
  C   C14       1.0  0.03878  0.00010  0.88422  1.0000
  C   C15       1.0  0.96143  0.00010  0.88422  1.0000
  C   C16       1.0  0.93727  0.00010  0.92208  1.0000
  C   C17       1.0  0.29933  0.99990  0.04064  1.0000
  C   C18       1.0  0.36876  0.99990  0.02030  1.0000
  C   C19       1.0  0.36872  0.99990  0.97987  1.0000
  C   C20       1.0  0.29926  0.00010  0.95957  1.0000
  C   C21       1.0  0.91903  0.00010  0.85054  1.0000
  C   C22       1.0  0.95965  0.00010  0.81582  1.0000
  C   C23       1.0  0.04052  0.00010  0.81581  1.0000
  C   C24       1.0  0.08117  0.00010  0.85053  1.0000
  N   N6        1.0  0.89300  0.00010  0.00010  1.0000
  C   C25       1.0  0.84403  0.99990  0.96870  1.0000
  N   N7        1.0  0.86315  0.99990  0.93164  1.0000
  C   C26       1.0  0.76832  0.99990  0.98077  1.0000
  C   C27       1.0  0.76831  0.00010  0.01945  1.0000
  C   C28       1.0  0.84402  0.00010  0.03154  1.0000
  C   C29       1.0  0.70093  0.00010  0.04063  1.0000
  C   C30       1.0  0.63149  0.00010  0.02030  1.0000
  C   C31       1.0  0.63152  0.99990  0.97986  1.0000
  C   C32       1.0  0.70098  0.99990  0.95956  1.0000
  N   N8        1.0  0.86315  0.00010  0.06860  1.0000
  H   H1        1.0  0.86446  0.00010  0.14925  1.0000
  O   O1        1.0  0.92603  0.00010  0.21374  1.0000
  O   O2        1.0  0.07413  0.00010  0.21375  1.0000
  H   H2        1.0  0.13574  0.00010  0.14927  1.0000
  H   H3        1.0  0.29847  0.99990  0.06792  1.0000
  O   O3        1.0  0.42739  0.99990  0.03710  1.0000
  O   O4        1.0  0.42732  0.99990  0.96305  1.0000
  H   H4        1.0  0.29834  0.00010  0.93229  1.0000
  H   H5        1.0  0.86446  0.99990  0.85099  1.0000
  O   O5        1.0  0.92603  0.00010  0.78651  1.0000
  O   O6        1.0  0.07413  0.00010  0.78651  1.0000
  H   H6        1.0  0.13573  0.00010  0.85097  1.0000
  H   H7        1.0  0.70180  0.00010  0.06792  1.0000
  O   O7        1.0  0.57287  0.99990  0.03710  1.0000
  O   O8        1.0  0.57291  0.99990  0.96305  1.0000
  H   H8        1.0  0.70189  0.99990  0.93228  1.0000
  Ni  Ni1       1.0  0.00010  0.00010  0.00010  1.0000
  C   C33       1.0  0.99990  0.91902  0.64961  1.0000
  C   C34       1.0  0.99990  0.95965  0.68433  1.0000
  C   C35       1.0  0.99990  0.04053  0.68434  1.0000
  C   C36       1.0  0.99990  0.08117  0.64961  1.0000
  C   C37       1.0  0.99990  0.03878  0.61593  1.0000
  C   C38       1.0  0.99990  0.96143  0.61593  1.0000
  C   C39       1.0  0.99990  0.93727  0.57807  1.0000
  N   N9        1.0  0.99990  0.00010  0.55359  1.0000
  C   C40       1.0  0.99990  0.06296  0.57808  1.0000
  N   N10       1.0  0.00010  0.13709  0.56851  1.0000
  C   C41       1.0  0.00010  0.15623  0.53145  1.0000
  N   N11       1.0  0.99990  0.10724  0.50003  1.0000
  C   C42       1.0  0.99990  0.15621  0.46860  1.0000
  C   C43       1.0  0.00010  0.23191  0.48068  1.0000
  C   C44       1.0  0.00010  0.23194  0.51936  1.0000
  N   N12       1.0  0.99990  0.00010  0.44646  1.0000
  C   C45       1.0  0.99990  0.06296  0.42197  1.0000
  N   N13       1.0  0.99990  0.13708  0.43154  1.0000
  C   C46       1.0  0.99990  0.03878  0.38412  1.0000
  C   C47       1.0  0.00010  0.96143  0.38412  1.0000
  C   C48       1.0  0.00010  0.93727  0.42198  1.0000
  C   C49       1.0  0.00010  0.29933  0.54054  1.0000
  C   C50       1.0  0.00010  0.36876  0.52020  1.0000
  C   C51       1.0  0.00010  0.36872  0.47977  1.0000
  C   C52       1.0  0.00010  0.29926  0.45947  1.0000
  C   C53       1.0  0.00010  0.91903  0.35044  1.0000
  C   C54       1.0  0.99990  0.95965  0.31572  1.0000
  C   C55       1.0  0.99990  0.04052  0.31571  1.0000
  C   C56       1.0  0.99990  0.08117  0.35043  1.0000
  N   N14       1.0  0.99990  0.89300  0.50002  1.0000
  C   C57       1.0  0.00010  0.84403  0.46860  1.0000
  N   N15       1.0  0.00010  0.86315  0.43154  1.0000
  C   C58       1.0  0.00010  0.76832  0.48067  1.0000
  C   C59       1.0  0.99990  0.76831  0.51935  1.0000
  C   C60       1.0  0.99990  0.84402  0.53144  1.0000
  C   C61       1.0  0.99990  0.70093  0.54053  1.0000
  C   C62       1.0  0.00010  0.63149  0.52020  1.0000
  C   C63       1.0  0.00010  0.63152  0.47976  1.0000
  C   C64       1.0  0.00010  0.70098  0.45946  1.0000
  N   N16       1.0  0.99990  0.86315  0.56850  1.0000
  H   H9        1.0  0.99990  0.86446  0.64915  1.0000
  O   O9        1.0  0.99990  0.92603  0.71364  1.0000
  O   O10       1.0  0.99990  0.07413  0.71365  1.0000
  H   H10       1.0  0.00010  0.13574  0.64917  1.0000
  H   H11       1.0  0.00010  0.29847  0.56782  1.0000
  O   O11       1.0  0.00010  0.42739  0.53700  1.0000
  O   O12       1.0  0.00010  0.42732  0.46295  1.0000
  H   H12       1.0  0.00010  0.29834  0.43219  1.0000
  H   H13       1.0  0.00010  0.86446  0.35089  1.0000
  O   O13       1.0  0.99990  0.92603  0.28641  1.0000
  O   O14       1.0  0.99990  0.07413  0.28641  1.0000
  H   H14       1.0  0.99990  0.13573  0.35087  1.0000
  H   H15       1.0  0.99990  0.70180  0.56782  1.0000
  O   O15       1.0  0.00010  0.57287  0.53700  1.0000
  O   O16       1.0  0.00010  0.57291  0.46295  1.0000
  H   H16       1.0  0.00010  0.70189  0.43218  1.0000
  Ni  Ni2       1.0  0.99990  0.00010  0.50003  1.0000
  Zn  Zn1       1.0  0.99990  0.00010  0.25003  1.0000
  Zn  Zn2       1.0  0.99990  0.00010  0.75013  1.0000
  Cu  Cu1       1.0  0.50012  0.99990  0.00010  1.0000
  Cu  Cu2       1.0  0.00010  0.50012  0.49997  1.0000
