data_image0
_chemical_formula_structural       C7NCNCNC3NCNC11NCNC7NH8C16HO2H2O2H2O2H2O2HNiC7NCNCNC3NCNC11NCNC7NH8C16HO2H2O2H2O2H2O2HNiC7NCNCNC3NCNC11NCNC7NH8C16HO2H2O2H2O2H2O2HNiZn2Cu4
_chemical_formula_sum              "C144 N24 H48 O24 Ni3 Zn2 Cu4"
_cell_length_a       25.0712
_cell_length_b       75.22
_cell_length_c       25.0713
_cell_angle_alpha    90.279
_cell_angle_beta     90.0007
_cell_angle_gamma    89.8102

_space_group_name_H-M_alt    "P 1"
_space_group_IT_number       1

loop_
  _space_group_symop_operation_xyz
  'x, y, z'

loop_
  _atom_site_type_symbol
  _atom_site_label
  _atom_site_symmetry_multiplicity
  _atom_site_fract_x
  _atom_site_fract_y
  _atom_site_fract_z
  _atom_site_occupancy
  C   C1        1.0  0.06383  0.92551  0.00114  1.0000
  C   C2        1.0  0.03254  0.90781  0.00114  1.0000
  C   C3        1.0  0.97068  0.90784  0.00114  1.0000
  C   C4        1.0  0.93959  0.92558  0.00114  1.0000
  C   C5        1.0  0.97200  0.94279  0.00113  1.0000
  C   C6        1.0  0.03164  0.94276  0.00113  1.0000
  C   C7        1.0  0.05044  0.96212  0.00113  1.0000
  N   N1        1.0  0.00186  0.97434  0.00113  1.0000
  C   C8        1.0  0.95326  0.96217  0.00113  1.0000
  N   N2        1.0  0.89551  0.96787  0.00113  1.0000
  C   C9        1.0  0.87857  0.98709  0.00113  1.0000
  N   N3        1.0  0.91516  0.00328  0.00113  1.0000
  C   C10       1.0  0.87865  0.01947  0.00112  1.0000
  C   C11       1.0  0.82056  0.01323  0.00112  1.0000
  C   C12       1.0  0.82046  0.99337  0.00113  1.0000
  N   N4        1.0  0.00171  0.03209  0.00112  1.0000
  C   C13       1.0  0.95320  0.04428  0.00112  1.0000
  N   N5        1.0  0.89560  0.03867  0.00112  1.0000
  C   C14       1.0  0.97203  0.06364  0.00112  1.0000
  C   C15       1.0  0.03161  0.06363  0.00112  1.0000
  C   C16       1.0  0.05032  0.04426  0.00112  1.0000
  C   C17       1.0  0.76875  0.98261  0.00113  1.0000
  C   C18       1.0  0.71565  0.99296  0.00113  1.0000
  C   C19       1.0  0.71571  0.01355  0.00112  1.0000
  C   C20       1.0  0.76887  0.02396  0.00112  1.0000
  C   C21       1.0  0.06398  0.08085  0.00111  1.0000
  C   C22       1.0  0.03298  0.09858  0.00111  1.0000
  C   C23       1.0  0.97119  0.09858  0.00111  1.0000
  C   C24       1.0  0.93990  0.08087  0.00111  1.0000
  N   N6        1.0  0.08845  0.00315  0.00113  1.0000
  C   C25       1.0  0.12498  0.01932  0.00112  1.0000
  N   N7        1.0  0.10798  0.03857  0.00112  1.0000
  C   C26       1.0  0.18312  0.01306  0.00112  1.0000
  C   C27       1.0  0.18308  0.99319  0.00113  1.0000
  C   C28       1.0  0.12499  0.98694  0.00113  1.0000
  C   C29       1.0  0.23479  0.98244  0.00113  1.0000
  C   C30       1.0  0.28799  0.99284  0.00113  1.0000
  C   C31       1.0  0.28799  0.01345  0.00112  1.0000
  C   C32       1.0  0.23479  0.02383  0.00112  1.0000
  N   N8        1.0  0.10807  0.96772  0.00113  1.0000
  H   H1        1.0  0.10910  0.92570  0.00114  1.0000
  H   H2        1.0  0.89429  0.92582  0.00114  1.0000
  H   H3        1.0  0.76935  0.96752  0.00113  1.0000
  H   H4        1.0  0.76955  0.03905  0.00112  1.0000
  H   H5        1.0  0.10923  0.08063  0.00111  1.0000
  H   H6        1.0  0.89463  0.08067  0.00111  1.0000
  H   H7        1.0  0.23415  0.96735  0.00113  1.0000
  H   H8        1.0  0.23416  0.03893  0.00112  1.0000
  C   C33       1.0  0.34116  0.98273  0.00113  1.0000
  C   C34       1.0  0.39423  0.99299  0.00113  1.0000
  C   C35       1.0  0.39424  0.01338  0.00112  1.0000
  C   C36       1.0  0.34118  0.02360  0.00112  1.0000
  C   C37       1.0  0.06279  0.89004  0.00114  1.0000
  C   C38       1.0  0.03193  0.87237  0.00114  1.0000
  C   C39       1.0  0.97079  0.87240  0.00114  1.0000
  C   C40       1.0  0.94019  0.89011  0.00114  1.0000
  C   C41       1.0  0.66240  0.98281  0.00113  1.0000
  C   C42       1.0  0.60940  0.99304  0.00113  1.0000
  C   C43       1.0  0.60949  0.01341  0.00112  1.0000
  C   C44       1.0  0.66256  0.02366  0.00112  1.0000
  C   C45       1.0  0.06350  0.11631  0.00111  1.0000
  C   C46       1.0  0.03297  0.13398  0.00111  1.0000
  C   C47       1.0  0.97189  0.13399  0.00111  1.0000
  C   C48       1.0  0.94104  0.11632  0.00111  1.0000
  H   H9        1.0  0.34126  0.96764  0.00113  1.0000
  O   O1        1.0  0.44598  0.98310  0.00113  1.0000
  O   O2        1.0  0.44602  0.02331  0.00112  1.0000
  H   H10       1.0  0.34133  0.03870  0.00112  1.0000
  H   H11       1.0  0.10807  0.88999  0.00114  1.0000
  O   O3        1.0  0.06153  0.85510  0.00115  1.0000
  O   O4        1.0  0.94089  0.85515  0.00115  1.0000
  H   H12       1.0  0.89490  0.89008  0.00114  1.0000
  H   H13       1.0  0.66221  0.96773  0.00113  1.0000
  O   O5        1.0  0.55759  0.98311  0.00113  1.0000
  O   O6        1.0  0.55778  0.02328  0.00112  1.0000
  H   H14       1.0  0.66250  0.03874  0.00112  1.0000
  H   H15       1.0  0.10870  0.11634  0.00111  1.0000
  O   O7        1.0  0.06278  0.15123  0.00111  1.0000
  O   O8        1.0  0.94233  0.15124  0.00111  1.0000
  H   H16       1.0  0.89578  0.11637  0.00111  1.0000
  Ni  Ni1       1.0  0.00179  0.00321  0.00113  1.0000
  C   C49       1.0  0.00328  0.41419  0.06342  1.0000
  C   C50       1.0  0.00325  0.43189  0.03220  1.0000
  C   C51       1.0  0.00325  0.43185  0.97035  1.0000
  C   C52       1.0  0.00328  0.41412  0.93918  1.0000
  C   C53       1.0  0.00332  0.39690  0.97150  1.0000
  C   C54       1.0  0.00332  0.39694  0.03114  1.0000
  C   C55       1.0  0.00336  0.37758  0.04986  1.0000
  N   N9        1.0  0.00339  0.36536  0.00122  1.0000
  C   C56       1.0  0.00336  0.37752  0.95267  1.0000
  N   N10       1.0  0.00338  0.37183  0.89490  1.0000
  C   C57       1.0  0.00342  0.35260  0.87787  1.0000
  N   N11       1.0  0.00345  0.33642  0.91438  1.0000
  C   C58       1.0  0.00349  0.32022  0.87780  1.0000
  C   C59       1.0  0.00347  0.32647  0.81974  1.0000
  C   C60       1.0  0.00343  0.34633  0.81973  1.0000
  N   N12       1.0  0.00351  0.30761  0.00010  1.0000
  C   C61       1.0  0.00354  0.29542  0.95224  1.0000
  N   N13       1.0  0.00353  0.30103  0.89466  1.0000
  C   C62       1.0  0.00358  0.27606  0.97098  1.0000
  C   C63       1.0  0.00358  0.27607  0.03055  1.0000
  C   C64       1.0  0.00354  0.29544  0.04935  1.0000
  C   C65       1.0  0.00341  0.35709  0.76807  1.0000
  C   C66       1.0  0.00343  0.34674  0.71492  1.0000
  C   C67       1.0  0.00347  0.32614  0.71488  1.0000
  C   C68       1.0  0.00350  0.31574  0.76800  1.0000
  C   C69       1.0  0.00362  0.25885  0.06285  1.0000
  C   C70       1.0  0.00366  0.24112  0.03176  1.0000
  C   C71       1.0  0.00366  0.24112  0.96998  1.0000
  C   C72       1.0  0.00362  0.25882  0.93876  1.0000
  N   N14       1.0  0.00345  0.33655  0.08767  1.0000
  C   C73       1.0  0.00349  0.32037  0.12413  1.0000
  N   N15       1.0  0.00353  0.30113  0.10704  1.0000
  C   C74       1.0  0.00347  0.32664  0.18230  1.0000
  C   C75       1.0  0.00343  0.34651  0.18235  1.0000
  C   C76       1.0  0.00342  0.35276  0.12429  1.0000
  C   C77       1.0  0.00341  0.35726  0.23411  1.0000
  C   C78       1.0  0.00343  0.34686  0.28726  1.0000
  C   C79       1.0  0.00347  0.32625  0.28717  1.0000
  C   C80       1.0  0.00350  0.31587  0.23392  1.0000
  N   N16       1.0  0.00337  0.37198  0.10746  1.0000
  H   H17       1.0  0.00328  0.41400  0.10869  1.0000
  H   H18       1.0  0.00328  0.41388  0.89387  1.0000
  H   H19       1.0  0.00337  0.37218  0.76875  1.0000
  H   H20       1.0  0.00353  0.30065  0.76861  1.0000
  H   H21       1.0  0.00362  0.25907  0.10809  1.0000
  H   H22       1.0  0.00362  0.25903  0.89350  1.0000
  H   H23       1.0  0.00337  0.37235  0.23354  1.0000
  H   H24       1.0  0.00353  0.30077  0.23322  1.0000
  C   C81       1.0  0.00341  0.35697  0.34049  1.0000
  C   C82       1.0  0.00343  0.34671  0.39351  1.0000
  C   C83       1.0  0.00347  0.32632  0.39342  1.0000
  C   C84       1.0  0.00349  0.31610  0.34031  1.0000
  C   C85       1.0  0.00321  0.44966  0.06254  1.0000
  C   C86       1.0  0.00317  0.46733  0.03177  1.0000
  C   C87       1.0  0.00317  0.46730  0.97062  1.0000
  C   C88       1.0  0.00321  0.44959  0.93994  1.0000
  C   C89       1.0  0.00341  0.35688  0.66172  1.0000
  C   C90       1.0  0.00343  0.34666  0.60867  1.0000
  C   C91       1.0  0.00347  0.32629  0.60867  1.0000
  C   C92       1.0  0.00349  0.31604  0.66169  1.0000
  C   C93       1.0  0.00369  0.22339  0.06220  1.0000
  C   C94       1.0  0.00373  0.20572  0.03159  1.0000
  C   C95       1.0  0.00373  0.20571  0.97051  1.0000
  C   C96       1.0  0.00369  0.22338  0.93974  1.0000
  H   H25       1.0  0.00337  0.37206  0.34065  1.0000
  O   O9        1.0  0.00341  0.35660  0.44530  1.0000
  O   O10       1.0  0.00349  0.31639  0.44515  1.0000
  H   H26       1.0  0.00353  0.30100  0.34039  1.0000
  H   H27       1.0  0.00321  0.44971  0.10782  1.0000
  O   O11       1.0  0.00313  0.48460  0.06144  1.0000
  O   O12       1.0  0.00313  0.48454  0.94080  1.0000
  H   H28       1.0  0.00321  0.44962  0.89465  1.0000
  H   H29       1.0  0.00337  0.37196  0.66160  1.0000
  O   O13       1.0  0.00341  0.35658  0.55691  1.0000
  O   O14       1.0  0.00349  0.31642  0.55691  1.0000
  H   H30       1.0  0.00353  0.30096  0.66156  1.0000
  H   H31       1.0  0.00369  0.22336  0.10740  1.0000
  O   O15       1.0  0.00377  0.18847  0.06132  1.0000
  O   O16       1.0  0.00377  0.18846  0.94087  1.0000
  H   H32       1.0  0.00369  0.22333  0.89448  1.0000
  Ni  Ni2       1.0  0.00345  0.33649  0.00102  1.0000
  C   C97       1.0  0.00010  0.59218  0.93885  1.0000
  C   C98       1.0  0.00010  0.57447  0.97007  1.0000
  C   C99       1.0  0.00010  0.57451  0.03192  1.0000
  C   C100      1.0  0.00010  0.59225  0.06309  1.0000
  C   C101      1.0  0.00010  0.60946  0.03077  1.0000
  C   C102      1.0  0.00010  0.60943  0.97113  1.0000
  C   C103      1.0  0.00010  0.62879  0.95242  1.0000
  N   N17       1.0  0.00010  0.64101  0.00105  1.0000
  C   C104      1.0  0.00010  0.62884  0.04960  1.0000
  N   N18       1.0  0.00010  0.63453  0.10737  1.0000
  C   C105      1.0  0.00010  0.65376  0.12440  1.0000
  N   N19       1.0  0.00010  0.66994  0.08789  1.0000
  C   C106      1.0  0.00010  0.68614  0.12447  1.0000
  C   C107      1.0  0.00010  0.67990  0.18253  1.0000
  C   C108      1.0  0.00010  0.66004  0.18254  1.0000
  N   N20       1.0  0.00010  0.69876  0.00147  1.0000
  C   C109      1.0  0.00010  0.71095  0.05003  1.0000
  N   N21       1.0  0.00010  0.70534  0.10761  1.0000
  C   C110      1.0  0.00010  0.73031  0.03129  1.0000
  C   C111      1.0  0.00010  0.73030  0.97172  1.0000
  C   C112      1.0  0.00010  0.71092  0.95292  1.0000
  C   C113      1.0  0.00010  0.64928  0.23420  1.0000
  C   C114      1.0  0.00010  0.65963  0.28735  1.0000
  C   C115      1.0  0.00010  0.68022  0.28739  1.0000
  C   C116      1.0  0.00010  0.69063  0.23427  1.0000
  C   C117      1.0  0.00010  0.74752  0.93942  1.0000
  C   C118      1.0  0.00010  0.76525  0.97051  1.0000
  C   C119      1.0  0.00010  0.76525  0.03229  1.0000
  C   C120      1.0  0.00010  0.74754  0.06351  1.0000
  N   N22       1.0  0.00010  0.66981  0.91460  1.0000
  C   C121      1.0  0.00010  0.68599  0.87814  1.0000
  N   N23       1.0  0.00010  0.70524  0.89523  1.0000
  C   C122      1.0  0.00010  0.67973  0.81997  1.0000
  C   C123      1.0  0.00010  0.65985  0.81992  1.0000
  C   C124      1.0  0.00010  0.65361  0.87798  1.0000
  C   C125      1.0  0.00010  0.64911  0.76816  1.0000
  C   C126      1.0  0.00010  0.65951  0.71501  1.0000
  C   C127      1.0  0.00010  0.68012  0.71511  1.0000
  C   C128      1.0  0.00010  0.69050  0.76835  1.0000
  N   N24       1.0  0.00010  0.63439  0.89481  1.0000
  H   H33       1.0  0.00010  0.59237  0.89359  1.0000
  H   H34       1.0  0.00010  0.59249  0.10840  1.0000
  H   H35       1.0  0.00010  0.63419  0.23353  1.0000
  H   H36       1.0  0.00010  0.70572  0.23366  1.0000
  H   H37       1.0  0.00010  0.74730  0.89418  1.0000
  H   H38       1.0  0.00010  0.74734  0.10877  1.0000
  H   H39       1.0  0.00010  0.63401  0.76873  1.0000
  H   H40       1.0  0.00010  0.70560  0.76905  1.0000
  C   C129      1.0  0.00010  0.64940  0.66179  1.0000
  C   C130      1.0  0.00010  0.65966  0.60877  1.0000
  C   C131      1.0  0.00010  0.68004  0.60885  1.0000
  C   C132      1.0  0.00010  0.69026  0.66196  1.0000
  C   C133      1.0  0.00010  0.55671  0.93974  1.0000
  C   C134      1.0  0.00010  0.53904  0.97051  1.0000
  C   C135      1.0  0.00010  0.53907  0.03165  1.0000
  C   C136      1.0  0.00010  0.55678  0.06233  1.0000
  C   C137      1.0  0.00010  0.64948  0.34055  1.0000
  C   C138      1.0  0.00010  0.65971  0.39360  1.0000
  C   C139      1.0  0.00010  0.68008  0.39360  1.0000
  C   C140      1.0  0.00010  0.69033  0.34058  1.0000
  C   C141      1.0  0.00010  0.78298  0.94007  1.0000
  C   C142      1.0  0.00010  0.80065  0.97068  1.0000
  C   C143      1.0  0.00010  0.80066  0.03176  1.0000
  C   C144      1.0  0.00010  0.78299  0.06253  1.0000
  H   H41       1.0  0.00010  0.63431  0.66162  1.0000
  O   O17       1.0  0.00010  0.64977  0.55697  1.0000
  O   O18       1.0  0.00010  0.68997  0.55712  1.0000
  H   H42       1.0  0.00010  0.70537  0.66188  1.0000
  H   H43       1.0  0.00010  0.55665  0.89445  1.0000
  O   O19       1.0  0.00010  0.52176  0.94083  1.0000
  O   O20       1.0  0.00010  0.52182  0.06147  1.0000
  H   H44       1.0  0.00010  0.55675  0.10762  1.0000
  H   H45       1.0  0.00010  0.63440  0.34067  1.0000
  O   O21       1.0  0.00010  0.64978  0.44536  1.0000
  O   O22       1.0  0.00010  0.68995  0.44536  1.0000
  H   H46       1.0  0.00010  0.70541  0.34071  1.0000
  H   H47       1.0  0.00010  0.78301  0.89487  1.0000
  O   O23       1.0  0.00010  0.81790  0.94095  1.0000
  O   O24       1.0  0.00010  0.81791  0.06140  1.0000
  H   H48       1.0  0.00010  0.78304  0.10779  1.0000
  Ni  Ni3       1.0  0.00010  0.66988  0.00125  1.0000
  Zn  Zn1       1.0  0.00317  0.16985  0.00110  1.0000
  Zn  Zn2       1.0  0.00010  0.83652  0.00116  1.0000
  Cu  Cu1       1.0  0.00196  0.50318  0.00114  1.0000
  Cu  Cu2       1.0  0.00345  0.33649  0.50107  1.0000
  Cu  Cu3       1.0  0.00010  0.66987  0.50120  1.0000
  Cu  Cu4       1.0  0.50184  0.00320  0.00113  1.0000
