data_image0
_chemical_formula_structural       C7NCNCNC3NCNC11NCNC7NHO2H2O2H2O2H2O2HNiC7NCNCNC3NCNC11NCNC7NHO2H2O2H2O2H2O2HNiC7NCNCNC3NCNC11NCNC7NHO2H2O2H2O2H2O2HNiZn2Cu4
_chemical_formula_sum              "C96 N24 H24 O24 Ni3 Zn2 Cu4"
_cell_length_a       19.2396
_cell_length_b       57.7198
_cell_length_c       19.2396
_cell_angle_alpha    90.0023
_cell_angle_beta     90
_cell_angle_gamma    89.9967

_space_group_name_H-M_alt    "P 1"
_space_group_IT_number       1

loop_
  _space_group_symop_operation_xyz
  'x, y, z'

loop_
  _atom_site_type_symbol
  _atom_site_label
  _atom_site_symmetry_multiplicity
  _atom_site_fract_x
  _atom_site_fract_y
  _atom_site_fract_z
  _atom_site_occupancy
  C   C1        1.0  0.91902  0.90134  0.00010  1.0000
  C   C2        1.0  0.95965  0.87819  0.00010  1.0000
  C   C3        1.0  0.04053  0.87819  0.00010  1.0000
  C   C4        1.0  0.08117  0.90134  0.00010  1.0000
  C   C5        1.0  0.03878  0.92379  0.00010  1.0000
  C   C6        1.0  0.96143  0.92380  0.00010  1.0000
  C   C7        1.0  0.93727  0.94903  0.00010  1.0000
  N   N1        1.0  0.00010  0.96535  0.00010  1.0000
  C   C8        1.0  0.06296  0.94903  0.00010  1.0000
  N   N2        1.0  0.13709  0.95541  0.99990  1.0000
  C   C9        1.0  0.15622  0.98011  0.99990  1.0000
  N   N3        1.0  0.10724  0.00106  0.00010  1.0000
  C   C10       1.0  0.15621  0.02201  0.00010  1.0000
  C   C11       1.0  0.23191  0.01396  0.00010  1.0000
  C   C12       1.0  0.23194  0.98818  0.99990  1.0000
  N   N4        1.0  0.00010  0.03677  0.00010  1.0000
  C   C13       1.0  0.06296  0.05310  0.00010  1.0000
  N   N5        1.0  0.13708  0.04672  0.00010  1.0000
  C   C14       1.0  0.03878  0.07834  0.00010  1.0000
  C   C15       1.0  0.96143  0.07833  0.00010  1.0000
  C   C16       1.0  0.93727  0.05310  0.00010  1.0000
  C   C17       1.0  0.29933  0.97406  0.99990  1.0000
  C   C18       1.0  0.36876  0.98761  0.99990  1.0000
  C   C19       1.0  0.36872  0.01457  0.99990  1.0000
  C   C20       1.0  0.29926  0.02810  0.00010  1.0000
  C   C21       1.0  0.91903  0.10079  0.00010  1.0000
  C   C22       1.0  0.95965  0.12394  0.00010  1.0000
  C   C23       1.0  0.04052  0.12394  0.00010  1.0000
  C   C24       1.0  0.08117  0.10079  0.00010  1.0000
  N   N6        1.0  0.89300  0.00107  0.00010  1.0000
  C   C25       1.0  0.84403  0.02202  0.99990  1.0000
  N   N7        1.0  0.86315  0.04672  0.99990  1.0000
  C   C26       1.0  0.76832  0.01397  0.99990  1.0000
  C   C27       1.0  0.76831  0.98818  0.00010  1.0000
  C   C28       1.0  0.84402  0.98012  0.00010  1.0000
  C   C29       1.0  0.70093  0.97406  0.00010  1.0000
  C   C30       1.0  0.63149  0.98761  0.00010  1.0000
  C   C31       1.0  0.63152  0.01457  0.99990  1.0000
  C   C32       1.0  0.70098  0.02811  0.99990  1.0000
  N   N8        1.0  0.86315  0.95541  0.00010  1.0000
  H   H1        1.0  0.86446  0.90164  0.00010  1.0000
  O   O1        1.0  0.92603  0.85865  0.00010  1.0000
  O   O2        1.0  0.07413  0.85865  0.00010  1.0000
  H   H2        1.0  0.13574  0.90163  0.00010  1.0000
  H   H3        1.0  0.29847  0.95587  0.99990  1.0000
  O   O3        1.0  0.42739  0.97642  0.99990  1.0000
  O   O4        1.0  0.42732  0.02578  0.99990  1.0000
  H   H4        1.0  0.29834  0.04629  0.00010  1.0000
  H   H5        1.0  0.86446  0.10049  0.99990  1.0000
  O   O5        1.0  0.92603  0.14347  0.00010  1.0000
  O   O6        1.0  0.07413  0.14347  0.00010  1.0000
  H   H6        1.0  0.13573  0.10050  0.00010  1.0000
  H   H7        1.0  0.70180  0.95587  0.00010  1.0000
  O   O7        1.0  0.57287  0.97642  0.99990  1.0000
  O   O8        1.0  0.57291  0.02578  0.99990  1.0000
  H   H8        1.0  0.70189  0.04630  0.99990  1.0000
  Ni  Ni1       1.0  0.00010  0.00106  0.00010  1.0000
  C   C33       1.0  0.00010  0.43411  0.91902  1.0000
  C   C34       1.0  0.00010  0.45727  0.95964  1.0000
  C   C35       1.0  0.00010  0.45727  0.04052  1.0000
  C   C36       1.0  0.00010  0.43412  0.08117  1.0000
  C   C37       1.0  0.00010  0.41166  0.03878  1.0000
  C   C38       1.0  0.00010  0.41166  0.96143  1.0000
  C   C39       1.0  0.00010  0.38642  0.93727  1.0000
  N   N9        1.0  0.00010  0.37010  0.00010  1.0000
  C   C40       1.0  0.00010  0.38643  0.06296  1.0000
  N   N10       1.0  0.99990  0.38005  0.13709  1.0000
  C   C41       1.0  0.99990  0.35534  0.15622  1.0000
  N   N11       1.0  0.00010  0.33440  0.10724  1.0000
  C   C42       1.0  0.00010  0.31344  0.15621  1.0000
  C   C43       1.0  0.00010  0.32150  0.23191  1.0000
  C   C44       1.0  0.99990  0.34728  0.23194  1.0000
  N   N12       1.0  0.00010  0.29869  0.00010  1.0000
  C   C45       1.0  0.00010  0.28236  0.06296  1.0000
  N   N13       1.0  0.00010  0.28873  0.13709  1.0000
  C   C46       1.0  0.00010  0.25712  0.03878  1.0000
  C   C47       1.0  0.00010  0.25712  0.96144  1.0000
  C   C48       1.0  0.00010  0.28236  0.93727  1.0000
  C   C49       1.0  0.99990  0.36140  0.29933  1.0000
  C   C50       1.0  0.99990  0.34785  0.36876  1.0000
  C   C51       1.0  0.99990  0.32089  0.36872  1.0000
  C   C52       1.0  0.00010  0.30736  0.29926  1.0000
  C   C53       1.0  0.00010  0.23467  0.91904  1.0000
  C   C54       1.0  0.00010  0.21152  0.95966  1.0000
  C   C55       1.0  0.00010  0.21152  0.04053  1.0000
  C   C56       1.0  0.00010  0.23467  0.08117  1.0000
  N   N14       1.0  0.00010  0.33439  0.89300  1.0000
  C   C57       1.0  0.99990  0.31344  0.84403  1.0000
  N   N15       1.0  0.99990  0.28874  0.86315  1.0000
  C   C58       1.0  0.99990  0.32149  0.76832  1.0000
  C   C59       1.0  0.00010  0.34727  0.76831  1.0000
  C   C60       1.0  0.00010  0.35534  0.84402  1.0000
  C   C61       1.0  0.00010  0.36140  0.70093  1.0000
  C   C62       1.0  0.00010  0.34784  0.63149  1.0000
  C   C63       1.0  0.99990  0.32089  0.63152  1.0000
  C   C64       1.0  0.99990  0.30735  0.70098  1.0000
  N   N16       1.0  0.00010  0.38004  0.86315  1.0000
  H   H9        1.0  0.00010  0.43381  0.86445  1.0000
  O   O9        1.0  0.00010  0.47680  0.92602  1.0000
  O   O10       1.0  0.00010  0.47681  0.07412  1.0000
  H   H10       1.0  0.00010  0.43382  0.13573  1.0000
  H   H11       1.0  0.99990  0.37959  0.29847  1.0000
  O   O11       1.0  0.99990  0.35904  0.42739  1.0000
  O   O12       1.0  0.99990  0.30968  0.42732  1.0000
  H   H12       1.0  0.00010  0.28917  0.29834  1.0000
  H   H13       1.0  0.99990  0.23497  0.86447  1.0000
  O   O13       1.0  0.00010  0.19199  0.92604  1.0000
  O   O14       1.0  0.00010  0.19198  0.07414  1.0000
  H   H14       1.0  0.00010  0.23496  0.13574  1.0000
  H   H15       1.0  0.00010  0.37959  0.70180  1.0000
  O   O15       1.0  0.99990  0.35904  0.57287  1.0000
  O   O16       1.0  0.99990  0.30967  0.57291  1.0000
  H   H16       1.0  0.99990  0.28916  0.70190  1.0000
  Ni  Ni2       1.0  0.00010  0.33440  0.00010  1.0000
  C   C65       1.0  0.00010  0.56801  0.08118  1.0000
  C   C66       1.0  0.00010  0.54486  0.04055  1.0000
  C   C67       1.0  0.00010  0.54485  0.95968  1.0000
  C   C68       1.0  0.00010  0.56800  0.91903  1.0000
  C   C69       1.0  0.00010  0.59046  0.96142  1.0000
  C   C70       1.0  0.00010  0.59046  0.03877  1.0000
  C   C71       1.0  0.00010  0.61570  0.06293  1.0000
  N   N17       1.0  0.00010  0.63202  0.00010  1.0000
  C   C72       1.0  0.00010  0.61570  0.93724  1.0000
  N   N18       1.0  0.99990  0.62207  0.86311  1.0000
  C   C73       1.0  0.99990  0.64678  0.84398  1.0000
  N   N19       1.0  0.00010  0.66773  0.89296  1.0000
  C   C74       1.0  0.00010  0.68868  0.84399  1.0000
  C   C75       1.0  0.00010  0.68063  0.76829  1.0000
  C   C76       1.0  0.99990  0.65484  0.76826  1.0000
  N   N20       1.0  0.00010  0.70344  0.00010  1.0000
  C   C77       1.0  0.00010  0.71977  0.93724  1.0000
  N   N21       1.0  0.00010  0.71339  0.86312  1.0000
  C   C78       1.0  0.00010  0.74500  0.96142  1.0000
  C   C79       1.0  0.00010  0.74500  0.03877  1.0000
  C   C80       1.0  0.00010  0.71976  0.06293  1.0000
  C   C81       1.0  0.99990  0.64072  0.70087  1.0000
  C   C82       1.0  0.99990  0.65428  0.63144  1.0000
  C   C83       1.0  0.99990  0.68123  0.63148  1.0000
  C   C84       1.0  0.00010  0.69477  0.70094  1.0000
  C   C85       1.0  0.00010  0.76745  0.08117  1.0000
  C   C86       1.0  0.00010  0.79060  0.04055  1.0000
  C   C87       1.0  0.00010  0.79060  0.95968  1.0000
  C   C88       1.0  0.00010  0.76746  0.91903  1.0000
  N   N22       1.0  0.00010  0.66773  0.10720  1.0000
  C   C89       1.0  0.99990  0.68868  0.15617  1.0000
  N   N23       1.0  0.99990  0.71339  0.13705  1.0000
  C   C90       1.0  0.99990  0.68063  0.23188  1.0000
  C   C91       1.0  0.00010  0.65485  0.23189  1.0000
  C   C92       1.0  0.00010  0.64679  0.15618  1.0000
  C   C93       1.0  0.00010  0.64072  0.29927  1.0000
  C   C94       1.0  0.00010  0.65428  0.36871  1.0000
  C   C95       1.0  0.99990  0.68124  0.36868  1.0000
  C   C96       1.0  0.99990  0.69477  0.29922  1.0000
  N   N24       1.0  0.00010  0.62208  0.13705  1.0000
  H   H17       1.0  0.00010  0.56831  0.13575  1.0000
  O   O17       1.0  0.00010  0.52532  0.07418  1.0000
  O   O18       1.0  0.00010  0.52531  0.92608  1.0000
  H   H18       1.0  0.00010  0.56830  0.86446  1.0000
  H   H19       1.0  0.99990  0.62253  0.70173  1.0000
  O   O19       1.0  0.99990  0.64308  0.57281  1.0000
  O   O20       1.0  0.99990  0.69245  0.57288  1.0000
  H   H20       1.0  0.00010  0.71296  0.70186  1.0000
  H   H21       1.0  0.99990  0.76716  0.13573  1.0000
  O   O21       1.0  0.00010  0.81014  0.07417  1.0000
  O   O22       1.0  0.00010  0.81014  0.92607  1.0000
  H   H22       1.0  0.00010  0.76717  0.86446  1.0000
  H   H23       1.0  0.00010  0.62253  0.29840  1.0000
  O   O23       1.0  0.99990  0.64308  0.42733  1.0000
  O   O24       1.0  0.99990  0.69245  0.42729  1.0000
  H   H24       1.0  0.99990  0.71296  0.29831  1.0000
  Ni  Ni3       1.0  0.00010  0.66773  0.00010  1.0000
  Zn  Zn1       1.0  0.00010  0.16773  0.00010  1.0000
  Zn  Zn2       1.0  0.00010  0.83440  0.00010  1.0000
  Cu  Cu1       1.0  0.00010  0.50106  0.00010  1.0000
  Cu  Cu2       1.0  0.99990  0.33436  0.50012  1.0000
  Cu  Cu3       1.0  0.99990  0.66777  0.50008  1.0000
  Cu  Cu4       1.0  0.50012  0.00110  0.99990  1.0000
