data_image0
_chemical_formula_structural       C6O6C6O6C6O6C6O6C6O6C6O6C6O6C6O6Zn2Cu10
_chemical_formula_sum              "C48 O48 Zn2 Cu10"
_cell_length_a       12.8299
_cell_length_b       12.8297
_cell_length_c       44.4436
_cell_angle_alpha    90
_cell_angle_beta     90
_cell_angle_gamma    90

_space_group_name_H-M_alt    "P 1"
_space_group_IT_number       1

loop_
  _space_group_symop_operation_xyz
  'x, y, z'

loop_
  _atom_site_type_symbol
  _atom_site_label
  _atom_site_symmetry_multiplicity
  _atom_site_fract_x
  _atom_site_fract_y
  _atom_site_fract_z
  _atom_site_occupancy
  C   C1        1.0  0.50000  0.05466  0.05605  1.0000
  C   C2        1.0  0.50000  0.10922  0.08333  1.0000
  C   C3        1.0  0.50000  0.05466  0.11061  1.0000
  C   C4        1.0  0.50000  0.94554  0.11061  1.0000
  C   C5        1.0  0.50000  0.89098  0.08333  1.0000
  C   C6        1.0  0.50000  0.94554  0.05605  1.0000
  O   O1        1.0  0.50000  0.10376  0.03150  1.0000
  O   O2        1.0  0.50000  0.20743  0.08333  1.0000
  O   O3        1.0  0.50000  0.10377  0.13517  1.0000
  O   O4        1.0  0.50000  0.89644  0.13517  1.0000
  O   O5        1.0  0.50000  0.79277  0.08333  1.0000
  O   O6        1.0  0.50000  0.89644  0.03150  1.0000
  C   C7        1.0  0.94554  0.50000  0.61061  1.0000
  C   C8        1.0  0.05466  0.50000  0.61061  1.0000
  C   C9        1.0  0.10922  0.50000  0.58333  1.0000
  C   C10       1.0  0.05466  0.50000  0.55605  1.0000
  C   C11       1.0  0.94554  0.50000  0.55605  1.0000
  C   C12       1.0  0.89098  0.50000  0.58333  1.0000
  O   O7        1.0  0.89644  0.50000  0.63516  1.0000
  O   O8        1.0  0.10377  0.50000  0.63516  1.0000
  O   O9        1.0  0.20743  0.50000  0.58333  1.0000
  O   O10       1.0  0.10377  0.50000  0.53150  1.0000
  O   O11       1.0  0.89644  0.50000  0.53150  1.0000
  O   O12       1.0  0.79277  0.50000  0.58333  1.0000
  C   C13       1.0  0.50000  0.94554  0.94395  1.0000
  C   C14       1.0  0.50000  0.89098  0.91667  1.0000
  C   C15       1.0  0.50000  0.94554  0.88939  1.0000
  C   C16       1.0  0.50000  0.05466  0.88939  1.0000
  C   C17       1.0  0.50000  0.10922  0.91667  1.0000
  C   C18       1.0  0.50000  0.05466  0.94395  1.0000
  O   O13       1.0  0.50000  0.89644  0.96850  1.0000
  O   O14       1.0  0.50000  0.79277  0.91667  1.0000
  O   O15       1.0  0.50000  0.89643  0.86483  1.0000
  O   O16       1.0  0.50000  0.10376  0.86483  1.0000
  O   O17       1.0  0.50000  0.20743  0.91667  1.0000
  O   O18       1.0  0.50000  0.10376  0.96850  1.0000
  C   C19       1.0  0.94554  0.50000  0.38939  1.0000
  C   C20       1.0  0.05466  0.50000  0.38939  1.0000
  C   C21       1.0  0.10922  0.50000  0.41667  1.0000
  C   C22       1.0  0.05466  0.50000  0.44395  1.0000
  C   C23       1.0  0.94554  0.50000  0.44395  1.0000
  C   C24       1.0  0.89098  0.50000  0.41667  1.0000
  O   O19       1.0  0.89644  0.50000  0.36484  1.0000
  O   O20       1.0  0.10377  0.50000  0.36484  1.0000
  O   O21       1.0  0.20743  0.50000  0.41667  1.0000
  O   O22       1.0  0.10377  0.50000  0.46850  1.0000
  O   O23       1.0  0.89644  0.50000  0.46850  1.0000
  O   O24       1.0  0.79277  0.50000  0.41667  1.0000
  C   C25       1.0  0.50000  0.44544  0.19395  1.0000
  C   C26       1.0  0.50000  0.39088  0.16667  1.0000
  C   C27       1.0  0.50000  0.44544  0.13939  1.0000
  C   C28       1.0  0.50000  0.55456  0.13939  1.0000
  C   C29       1.0  0.50000  0.60912  0.16667  1.0000
  C   C30       1.0  0.50000  0.55456  0.19395  1.0000
  O   O25       1.0  0.50000  0.39634  0.21850  1.0000
  O   O26       1.0  0.50000  0.29267  0.16667  1.0000
  O   O27       1.0  0.50000  0.39633  0.11483  1.0000
  O   O28       1.0  0.50000  0.60366  0.11484  1.0000
  O   O29       1.0  0.50000  0.70733  0.16667  1.0000
  O   O30       1.0  0.50000  0.60367  0.21850  1.0000
  C   C31       1.0  0.44544  0.50000  0.63939  1.0000
  C   C32       1.0  0.55456  0.50000  0.63939  1.0000
  C   C33       1.0  0.60912  0.50000  0.66667  1.0000
  C   C34       1.0  0.55456  0.50000  0.69395  1.0000
  C   C35       1.0  0.44544  0.50000  0.69395  1.0000
  C   C36       1.0  0.39088  0.50000  0.66667  1.0000
  O   O31       1.0  0.39634  0.50000  0.61483  1.0000
  O   O32       1.0  0.60367  0.50000  0.61483  1.0000
  O   O33       1.0  0.70733  0.50000  0.66667  1.0000
  O   O34       1.0  0.60367  0.50000  0.71850  1.0000
  O   O35       1.0  0.39634  0.50000  0.71850  1.0000
  O   O36       1.0  0.29268  0.50000  0.66667  1.0000
  C   C37       1.0  0.50000  0.55456  0.80605  1.0000
  C   C38       1.0  0.50000  0.60912  0.83333  1.0000
  C   C39       1.0  0.50000  0.55457  0.86061  1.0000
  C   C40       1.0  0.50000  0.44545  0.86061  1.0000
  C   C41       1.0  0.50000  0.39089  0.83333  1.0000
  C   C42       1.0  0.50000  0.44544  0.80605  1.0000
  O   O37       1.0  0.50000  0.60367  0.78150  1.0000
  O   O38       1.0  0.50000  0.70733  0.83333  1.0000
  O   O39       1.0  0.50000  0.60367  0.88517  1.0000
  O   O40       1.0  0.50000  0.39634  0.88516  1.0000
  O   O41       1.0  0.50000  0.29268  0.83333  1.0000
  O   O42       1.0  0.50000  0.39634  0.78150  1.0000
  C   C43       1.0  0.44544  0.50000  0.36061  1.0000
  C   C44       1.0  0.55456  0.50000  0.36061  1.0000
  C   C45       1.0  0.60912  0.50000  0.33333  1.0000
  C   C46       1.0  0.55456  0.50000  0.30605  1.0000
  C   C47       1.0  0.44544  0.50000  0.30605  1.0000
  C   C48       1.0  0.39088  0.50000  0.33333  1.0000
  O   O43       1.0  0.39634  0.50000  0.38517  1.0000
  O   O44       1.0  0.60367  0.50000  0.38517  1.0000
  O   O45       1.0  0.70733  0.50000  0.33333  1.0000
  O   O46       1.0  0.60367  0.50000  0.28150  1.0000
  O   O47       1.0  0.39634  0.50000  0.28150  1.0000
  O   O48       1.0  0.29268  0.50000  0.33333  1.0000
  Zn  Zn1       1.0  0.50000  0.50000  0.25000  1.0000
  Zn  Zn2       1.0  0.50000  0.50000  0.75000  1.0000
  Cu  Cu1       1.0  0.50000  0.25000  0.12500  1.0000
  Cu  Cu2       1.0  0.75010  0.50000  0.62500  1.0000
  Cu  Cu3       1.0  0.50000  0.75010  0.12500  1.0000
  Cu  Cu4       1.0  0.25000  0.50000  0.62500  1.0000
  Cu  Cu5       1.0  0.50000  0.75010  0.87500  1.0000
  Cu  Cu6       1.0  0.25000  0.50000  0.37500  1.0000
  Cu  Cu7       1.0  0.50000  0.25000  0.87500  1.0000
  Cu  Cu8       1.0  0.75010  0.50000  0.37500  1.0000
  Cu  Cu9       1.0  0.50000  0.00010  0.99990  1.0000
  Cu  Cu10      1.0  0.00010  0.50000  0.50000  1.0000
