data_image0
_chemical_formula_structural       Fe6C6O6C6O6C6O6C6O6C6O6C6O6Fe6C6HO2HO2C6HO2HO2C6HO2HO2Cu3C6HO2HO2C6HO2HO2C6HO2HO2C6O2HO2HCuC6O2HO2HCuC6O2HO2HCuC6HO2HO2C6HO2HO2C6HO2HO2C6HO2HO2C6HO2HO2C6HO2HO2C6O2HO2HCuC6O2HO2HCuC6O2HO2HCuC6O2HO2HCuC6O2HO2HCuC6O2HO2HCuC6O2HO2HCuC6O2HO2HCuC6O2HO2HCu
_chemical_formula_sum              "Fe12 C180 O132 H48 Cu15"
_cell_length_a       43.1504
_cell_length_b       43.1652
_cell_length_c       25.9706
_cell_angle_alpha    89.9859
_cell_angle_beta     90.0221
_cell_angle_gamma    120.054

_space_group_name_H-M_alt    "P 1"
_space_group_IT_number       1

loop_
  _space_group_symop_operation_xyz
  'x, y, z'

loop_
  _atom_site_type_symbol
  _atom_site_label
  _atom_site_symmetry_multiplicity
  _atom_site_fract_x
  _atom_site_fract_y
  _atom_site_fract_z
  _atom_site_occupancy
  Fe  Fe1       1.0  0.46003  0.02355  0.07452  1.0000
  Fe  Fe2       1.0  0.00467  0.39313  0.07445  1.0000
  Fe  Fe3       1.0  0.63497  0.56817  0.07451  1.0000
  Fe  Fe4       1.0  0.63459  0.02343  0.07489  1.0000
  Fe  Fe5       1.0  0.00430  0.56751  0.07501  1.0000
  Fe  Fe6       1.0  0.46038  0.39331  0.07502  1.0000
  C   C1        1.0  0.10972  0.31902  0.51839  1.0000
  C   C2        1.0  0.14003  0.32342  0.49222  1.0000
  C   C3        1.0  0.14440  0.33213  0.43979  1.0000
  C   C4        1.0  0.11847  0.33644  0.41353  1.0000
  C   C5        1.0  0.08816  0.33204  0.43969  1.0000
  C   C6        1.0  0.08379  0.32333  0.49212  1.0000
  O   O1        1.0  0.10578  0.31118  0.56558  1.0000
  O   O2        1.0  0.16337  0.31954  0.51586  1.0000
  O   O3        1.0  0.17168  0.33609  0.41624  1.0000
  O   O4        1.0  0.12241  0.34428  0.36634  1.0000
  O   O5        1.0  0.06482  0.33592  0.41606  1.0000
  O   O6        1.0  0.05651  0.31937  0.51567  1.0000
  C   C7        1.0  0.69630  0.71286  0.43963  1.0000
  C   C8        1.0  0.70501  0.71720  0.49206  1.0000
  C   C9        1.0  0.70929  0.74742  0.51832  1.0000
  C   C10       1.0  0.70485  0.77330  0.49215  1.0000
  C   C11       1.0  0.69614  0.76896  0.43972  1.0000
  C   C12       1.0  0.69186  0.73874  0.41346  1.0000
  O   O7        1.0  0.69245  0.68566  0.41599  1.0000
  O   O8        1.0  0.70900  0.69391  0.51561  1.0000
  O   O9        1.0  0.71713  0.75133  0.56552  1.0000
  O   O10       1.0  0.70870  0.80049  0.51579  1.0000
  O   O11       1.0  0.69214  0.79224  0.41616  1.0000
  O   O12       1.0  0.68402  0.73483  0.36626  1.0000
  C   C13       1.0  0.31096  0.94445  0.49204  1.0000
  C   C14       1.0  0.31529  0.94008  0.43961  1.0000
  C   C15       1.0  0.28938  0.90974  0.41345  1.0000
  C   C16       1.0  0.25914  0.88378  0.43971  1.0000
  C   C17       1.0  0.25480  0.88815  0.49214  1.0000
  C   C18       1.0  0.28071  0.91849  0.51830  1.0000
  O   O13       1.0  0.33428  0.97176  0.51558  1.0000
  O   O14       1.0  0.34251  0.96345  0.41597  1.0000
  O   O15       1.0  0.29328  0.90581  0.36627  1.0000
  O   O16       1.0  0.23581  0.85647  0.41617  1.0000
  O   O17       1.0  0.22758  0.86478  0.51578  1.0000
  O   O18       1.0  0.27682  0.92242  0.56548  1.0000
  C   C19       1.0  0.31152  0.32430  0.49268  1.0000
  C   C20       1.0  0.31589  0.33301  0.44025  1.0000
  C   C21       1.0  0.28996  0.33731  0.41398  1.0000
  C   C22       1.0  0.25965  0.33291  0.44015  1.0000
  C   C23       1.0  0.25528  0.32420  0.49258  1.0000
  C   C24       1.0  0.28121  0.31989  0.51885  1.0000
  O   O19       1.0  0.33486  0.32042  0.51632  1.0000
  O   O20       1.0  0.34317  0.33697  0.41670  1.0000
  O   O21       1.0  0.29389  0.34515  0.36679  1.0000
  O   O22       1.0  0.23631  0.33679  0.41651  1.0000
  O   O23       1.0  0.22800  0.32024  0.51613  1.0000
  O   O24       1.0  0.27727  0.31205  0.56603  1.0000
  C   C25       1.0  0.70783  0.91768  0.51888  1.0000
  C   C26       1.0  0.70356  0.88747  0.49262  1.0000
  C   C27       1.0  0.69485  0.88312  0.44018  1.0000
  C   C28       1.0  0.69041  0.90900  0.41401  1.0000
  C   C29       1.0  0.69468  0.93921  0.44028  1.0000
  C   C30       1.0  0.70339  0.94356  0.49271  1.0000
  O   O25       1.0  0.71567  0.92159  0.56607  1.0000
  O   O26       1.0  0.70755  0.86418  0.51617  1.0000
  O   O27       1.0  0.69100  0.85593  0.41655  1.0000
  O   O28       1.0  0.68256  0.90509  0.36682  1.0000
  O   O29       1.0  0.69068  0.96250  0.41672  1.0000
  O   O30       1.0  0.70724  0.97075  0.51635  1.0000
  C   C31       1.0  0.11892  0.73788  0.41405  1.0000
  C   C32       1.0  0.14483  0.76822  0.44022  1.0000
  C   C33       1.0  0.14049  0.77259  0.49264  1.0000
  C   C34       1.0  0.11025  0.74662  0.51890  1.0000
  C   C35       1.0  0.08434  0.71628  0.49274  1.0000
  C   C36       1.0  0.08867  0.71191  0.44032  1.0000
  O   O31       1.0  0.12282  0.73395  0.36687  1.0000
  O   O32       1.0  0.17205  0.79160  0.41658  1.0000
  O   O33       1.0  0.16381  0.79990  0.51619  1.0000
  O   O34       1.0  0.10634  0.75056  0.56609  1.0000
  O   O35       1.0  0.05712  0.69291  0.51638  1.0000
  O   O36       1.0  0.06535  0.68461  0.41677  1.0000
  Fe  Fe7       1.0  0.76507  0.63296  0.85746  1.0000
  Fe  Fe8       1.0  0.39537  0.08886  0.85735  1.0000
  Fe  Fe9       1.0  0.93931  0.26306  0.85736  1.0000
  Fe  Fe10      1.0  0.93959  0.63277  0.85782  1.0000
  Fe  Fe11      1.0  0.39504  0.26325  0.85791  1.0000
  Fe  Fe12      1.0  0.76468  0.08824  0.85783  1.0000
  C   C37       1.0  0.56593  0.06062  0.05969  1.0000
  C   C38       1.0  0.52867  0.04235  0.06556  1.0000
  C   C39       1.0  0.51035  0.00580  0.07744  1.0000
  C   C40       1.0  0.52928  0.98752  0.08345  1.0000
  C   C41       1.0  0.56654  0.00579  0.07758  1.0000
  C   C42       1.0  0.58486  0.04234  0.06570  1.0000
  H   H1        1.0  0.57967  0.08803  0.05078  1.0000
  O   O37       1.0  0.51163  0.05881  0.06015  1.0000
  O   O38       1.0  0.47681  0.98936  0.08273  1.0000
  H   H2        1.0  0.51553  0.96011  0.09236  1.0000
  O   O39       1.0  0.58357  0.98933  0.08299  1.0000
  O   O40       1.0  0.61839  0.05878  0.06042  1.0000
  C   C43       1.0  0.04046  0.49841  0.08348  1.0000
  C   C44       1.0  0.02228  0.46118  0.07743  1.0000
  C   C45       1.0  0.98571  0.44280  0.06554  1.0000
  C   C46       1.0  0.96733  0.46165  0.05971  1.0000
  C   C47       1.0  0.98552  0.49888  0.06576  1.0000
  C   C48       1.0  0.02209  0.51726  0.07765  1.0000
  H   H3        1.0  0.06789  0.51219  0.09240  1.0000
  O   O41       1.0  0.03881  0.44421  0.08268  1.0000
  O   O42       1.0  0.96934  0.40929  0.06009  1.0000
  H   H4        1.0  0.93991  0.44786  0.05079  1.0000
  O   O43       1.0  0.96898  0.51584  0.06051  1.0000
  O   O44       1.0  0.03845  0.55076  0.08310  1.0000
  C   C49       1.0  0.56629  0.46225  0.05976  1.0000
  C   C50       1.0  0.52905  0.44320  0.06580  1.0000
  C   C51       1.0  0.51072  0.46139  0.07767  1.0000
  C   C52       1.0  0.52963  0.49864  0.08350  1.0000
  C   C53       1.0  0.56688  0.51770  0.07746  1.0000
  C   C54       1.0  0.58521  0.49950  0.06559  1.0000
  H   H5        1.0  0.58004  0.44860  0.05086  1.0000
  O   O45       1.0  0.51202  0.40967  0.06055  1.0000
  O   O46       1.0  0.47720  0.44424  0.08310  1.0000
  H   H6        1.0  0.51589  0.51229  0.09240  1.0000
  O   O47       1.0  0.58390  0.55122  0.08271  1.0000
  O   O48       1.0  0.61873  0.51665  0.06016  1.0000
  Cu  Cu1       1.0  0.19984  0.32816  0.46619  1.0000
  Cu  Cu2       1.0  0.69985  0.82821  0.46617  1.0000
  Cu  Cu3       1.0  0.19981  0.82819  0.46618  1.0000
  C   C55       1.0  0.87037  0.66883  0.84889  1.0000
  C   C56       1.0  0.83311  0.65057  0.85476  1.0000
  C   C57       1.0  0.81477  0.61402  0.86665  1.0000
  C   C58       1.0  0.83369  0.59573  0.87266  1.0000
  C   C59       1.0  0.87095  0.61398  0.86678  1.0000
  C   C60       1.0  0.88929  0.65053  0.85490  1.0000
  H   H7        1.0  0.88413  0.69624  0.83997  1.0000
  O   O49       1.0  0.81609  0.66704  0.84935  1.0000
  O   O50       1.0  0.78124  0.59760  0.87193  1.0000
  H   H8        1.0  0.81993  0.56832  0.88157  1.0000
  O   O51       1.0  0.88797  0.59751  0.87219  1.0000
  O   O52       1.0  0.92282  0.66696  0.84961  1.0000
  C   C61       1.0  0.43236  0.19472  0.87267  1.0000
  C   C62       1.0  0.41417  0.15749  0.86660  1.0000
  C   C63       1.0  0.37761  0.13912  0.85470  1.0000
  C   C64       1.0  0.35924  0.15798  0.84886  1.0000
  C   C65       1.0  0.37743  0.19521  0.85493  1.0000
  C   C66       1.0  0.41400  0.21358  0.86683  1.0000
  H   H9        1.0  0.45978  0.20849  0.88160  1.0000
  O   O53       1.0  0.43070  0.14051  0.87186  1.0000
  O   O54       1.0  0.36123  0.10561  0.84924  1.0000
  H   H10       1.0  0.33182  0.14420  0.83994  1.0000
  O   O55       1.0  0.36090  0.21218  0.84968  1.0000
  O   O56       1.0  0.43037  0.24708  0.87229  1.0000
  C   C67       1.0  0.87002  0.15774  0.84887  1.0000
  C   C68       1.0  0.83277  0.13870  0.85490  1.0000
  C   C69       1.0  0.81446  0.15691  0.86675  1.0000
  C   C70       1.0  0.83339  0.19416  0.87258  1.0000
  C   C71       1.0  0.87063  0.21320  0.86656  1.0000
  C   C72       1.0  0.88895  0.19499  0.85471  1.0000
  H   H11       1.0  0.88376  0.14408  0.83999  1.0000
  O   O57       1.0  0.81574  0.10517  0.84965  1.0000
  O   O58       1.0  0.78094  0.13977  0.87217  1.0000
  H   H12       1.0  0.81965  0.20782  0.88147  1.0000
  O   O59       1.0  0.88767  0.24672  0.87181  1.0000
  O   O60       1.0  0.92247  0.21212  0.84929  1.0000
  C   C73       1.0  0.43595  0.01221  0.17831  1.0000
  C   C74       1.0  0.40345  0.98513  0.14662  1.0000
  C   C75       1.0  0.36798  0.95949  0.17379  1.0000
  C   C76       1.0  0.36493  0.96087  0.23271  1.0000
  C   C77       1.0  0.39751  0.98803  0.26455  1.0000
  C   C78       1.0  0.43295  0.01364  0.23723  1.0000
  O   O61       1.0  0.47075  0.03737  0.15166  1.0000
  O   O62       1.0  0.40639  0.98373  0.08885  1.0000
  H   H13       1.0  0.34396  0.93946  0.15025  1.0000
  O   O63       1.0  0.33003  0.93562  0.25923  1.0000
  O   O64       1.0  0.39473  0.98955  0.32245  1.0000
  H   H14       1.0  0.45701  0.03369  0.26070  1.0000
  Cu  Cu4       1.0  0.33976  0.94834  0.34135  1.0000
  C   C79       1.0  0.04307  0.37509  0.14671  1.0000
  C   C80       1.0  0.01592  0.38040  0.17832  1.0000
  C   C81       1.0  0.01438  0.37597  0.23723  1.0000
  C   C82       1.0  0.03999  0.36623  0.26468  1.0000
  C   C83       1.0  0.06723  0.36090  0.23302  1.0000
  C   C84       1.0  0.06870  0.36535  0.17408  1.0000
  O   O65       1.0  0.04458  0.37944  0.08892  1.0000
  O   O66       1.0  0.99080  0.38995  0.15148  1.0000
  H   H15       1.0  0.99426  0.37991  0.26054  1.0000
  O   O67       1.0  0.03837  0.36191  0.32256  1.0000
  O   O68       1.0  0.09248  0.35132  0.25970  1.0000
  H   H16       1.0  0.08880  0.36142  0.15070  1.0000
  Cu  Cu5       1.0  0.07954  0.34830  0.34181  1.0000
  C   C85       1.0  0.64775  0.59227  0.17829  1.0000
  C   C86       1.0  0.65311  0.62472  0.14661  1.0000
  C   C87       1.0  0.66291  0.66016  0.17379  1.0000
  C   C88       1.0  0.66738  0.66322  0.23271  1.0000
  C   C89       1.0  0.66202  0.63069  0.26454  1.0000
  C   C90       1.0  0.65221  0.59528  0.23721  1.0000
  O   O69       1.0  0.63813  0.55750  0.15163  1.0000
  O   O70       1.0  0.64873  0.62177  0.08884  1.0000
  H   H17       1.0  0.66686  0.68414  0.15026  1.0000
  O   O71       1.0  0.67702  0.69809  0.25923  1.0000
  O   O72       1.0  0.66637  0.63348  0.32244  1.0000
  H   H18       1.0  0.64825  0.57125  0.26067  1.0000
  Cu  Cu6       1.0  0.68007  0.68839  0.34135  1.0000
  C   C91       1.0  0.98585  0.35621  0.93017  1.0000
  C   C92       1.0  0.96803  0.32068  0.91304  1.0000
  C   C93       1.0  0.95403  0.29260  0.94873  1.0000
  C   C94       1.0  0.95784  0.30005  0.00157  1.0000
  C   C95       1.0  0.97567  0.33558  0.01870  1.0000
  C   C96       1.0  0.98967  0.36366  0.98300  1.0000
  H   H19       1.0  0.99635  0.37727  0.90339  1.0000
  O   O73       1.0  0.96459  0.31398  0.86549  1.0000
  O   O74       1.0  0.93799  0.26063  0.93332  1.0000
  H   H20       1.0  0.94734  0.27899  0.02834  1.0000
  O   O75       1.0  0.97910  0.34229  0.06624  1.0000
  O   O76       1.0  0.00571  0.39564  0.99842  1.0000
  C   C97       1.0  0.72808  0.61424  0.00166  1.0000
  C   C98       1.0  0.69254  0.59663  0.01878  1.0000
  C   C99       1.0  0.66445  0.58279  0.98307  1.0000
  C   C100      1.0  0.67191  0.58656  0.93024  1.0000
  C   C101      1.0  0.70745  0.60417  0.91313  1.0000
  C   C102      1.0  0.73553  0.61802  0.94884  1.0000
  H   H21       1.0  0.74914  0.62463  0.02845  1.0000
  O   O77       1.0  0.68583  0.59324  0.06633  1.0000
  O   O78       1.0  0.63247  0.56694  0.99848  1.0000
  H   H22       1.0  0.65084  0.57618  0.90346  1.0000
  O   O79       1.0  0.71416  0.60757  0.86558  1.0000
  O   O80       1.0  0.76752  0.63387  0.93343  1.0000
  C   C103      1.0  0.42479  0.07989  0.99990  1.0000
  C   C104      1.0  0.41569  0.07893  0.94784  1.0000
  C   C105      1.0  0.41879  0.05542  0.91395  1.0000
  C   C106      1.0  0.43100  0.03285  0.93201  1.0000
  C   C107      1.0  0.44011  0.03381  0.98396  1.0000
  C   C108      1.0  0.43701  0.05732  0.01785  1.0000
  H   H23       1.0  0.42246  0.09752  0.02522  1.0000
  O   O81       1.0  0.40469  0.09924  0.93159  1.0000
  O   O82       1.0  0.41059  0.05456  0.86719  1.0000
  H   H24       1.0  0.43333  0.01522  0.90659  1.0000
  O   O83       1.0  0.45110  0.01350  0.00010  1.0000
  O   O84       1.0  0.44520  0.05818  0.06461  1.0000
  C   C109      1.0  0.72775  0.07023  0.00209  1.0000
  C   C110      1.0  0.69221  0.05242  0.01921  1.0000
  C   C111      1.0  0.66412  0.03819  0.98351  1.0000
  C   C112      1.0  0.67157  0.04177  0.93068  1.0000
  C   C113      1.0  0.70711  0.05958  0.91355  1.0000
  C   C114      1.0  0.73520  0.07381  0.94926  1.0000
  H   H25       1.0  0.74881  0.08090  0.02887  1.0000
  O   O85       1.0  0.68550  0.04920  0.06676  1.0000
  O   O86       1.0  0.63213  0.02216  0.99892  1.0000
  H   H26       1.0  0.65050  0.03110  0.90390  1.0000
  O   O87       1.0  0.71381  0.06280  0.86601  1.0000
  O   O88       1.0  0.76718  0.08984  0.93385  1.0000
  C   C115      1.0  0.99528  0.59682  0.93261  1.0000
  C   C116      1.0  0.97284  0.60919  0.91452  1.0000
  C   C117      1.0  0.94931  0.61233  0.94835  1.0000
  C   C118      1.0  0.94821  0.60311  0.00010  1.0000
  C   C119      1.0  0.97065  0.59074  0.01836  1.0000
  C   C120      1.0  0.99418  0.58760  0.98453  1.0000
  H   H27       1.0  0.01293  0.59447  0.90724  1.0000
  O   O89       1.0  0.97383  0.61749  0.86779  1.0000
  O   O90       1.0  0.92912  0.62346  0.93207  1.0000
  H   H28       1.0  0.93057  0.60546  0.02565  1.0000
  O   O91       1.0  0.96967  0.58244  0.06509  1.0000
  O   O92       1.0  0.01438  0.57647  0.00010  1.0000
  C   C121      1.0  0.41378  0.30016  0.00220  1.0000
  C   C122      1.0  0.41001  0.29272  0.94937  1.0000
  C   C123      1.0  0.42408  0.32080  0.91368  1.0000
  C   C124      1.0  0.44193  0.35633  0.93081  1.0000
  C   C125      1.0  0.44571  0.36377  0.98364  1.0000
  C   C126      1.0  0.43163  0.33569  0.01934  1.0000
  H   H29       1.0  0.40322  0.27910  0.02897  1.0000
  O   O93       1.0  0.39394  0.26074  0.93395  1.0000
  O   O94       1.0  0.42068  0.31410  0.86613  1.0000
  H   H30       1.0  0.45249  0.37739  0.90404  1.0000
  O   O95       1.0  0.46178  0.39575  0.99990  1.0000
  O   O96       1.0  0.43503  0.34239  0.06689  1.0000
  C   C127      1.0  0.04283  0.62389  0.14730  1.0000
  C   C128      1.0  0.01572  0.59140  0.17895  1.0000
  C   C129      1.0  0.01433  0.59424  0.23788  1.0000
  C   C130      1.0  0.04004  0.62959  0.26531  1.0000
  C   C131      1.0  0.06725  0.66220  0.23361  1.0000
  C   C132      1.0  0.06857  0.65926  0.17465  1.0000
  O   O97       1.0  0.04419  0.62110  0.08948  1.0000
  O   O98       1.0  0.99048  0.55672  0.15213  1.0000
  H   H31       1.0  0.99423  0.57015  0.26123  1.0000
  O   O99       1.0  0.03858  0.63225  0.32321  1.0000
  O   O100      1.0  0.09261  0.69703  0.26027  1.0000
  H   H32       1.0  0.08864  0.68332  0.15123  1.0000
  Cu  Cu7       1.0  0.07986  0.68704  0.34243  1.0000
  C   C133      1.0  0.43636  0.38076  0.17888  1.0000
  C   C134      1.0  0.40389  0.37537  0.14717  1.0000
  C   C135      1.0  0.36848  0.36569  0.17433  1.0000
  C   C136      1.0  0.36545  0.36139  0.23328  1.0000
  C   C137      1.0  0.39800  0.36680  0.26514  1.0000
  C   C138      1.0  0.43339  0.37647  0.23782  1.0000
  O   O101      1.0  0.47111  0.39025  0.15222  1.0000
  O   O102      1.0  0.40681  0.37957  0.08938  1.0000
  H   H33       1.0  0.34448  0.36171  0.15078  1.0000
  O   O103      1.0  0.33060  0.35189  0.25980  1.0000
  O   O104      1.0  0.39525  0.36262  0.32306  1.0000
  H   H34       1.0  0.45743  0.38047  0.26130  1.0000
  Cu  Cu8       1.0  0.34036  0.34905  0.34195  1.0000
  C   C139      1.0  0.64713  0.01197  0.17875  1.0000
  C   C140      1.0  0.65242  0.98483  0.14709  1.0000
  C   C141      1.0  0.66201  0.95907  0.17431  1.0000
  C   C142      1.0  0.66634  0.96036  0.23325  1.0000
  C   C143      1.0  0.66103  0.98756  0.26506  1.0000
  C   C144      1.0  0.65144  0.01331  0.23769  1.0000
  O   O105      1.0  0.63771  0.03725  0.15205  1.0000
  O   O106      1.0  0.64819  0.98352  0.08930  1.0000
  H   H35       1.0  0.66592  0.93901  0.15079  1.0000
  O   O107      1.0  0.67576  0.93500  0.25981  1.0000
  O   O108      1.0  0.66523  0.98901  0.32298  1.0000
  H   H36       1.0  0.64752  0.03339  0.26114  1.0000
  Cu  Cu9       1.0  0.67867  0.94764  0.34195  1.0000
  C   C145      1.0  0.99571  0.28098  0.78510  1.0000
  C   C146      1.0  0.96323  0.27559  0.75343  1.0000
  C   C147      1.0  0.96608  0.27985  0.69450  1.0000
  C   C148      1.0  0.00143  0.28952  0.66709  1.0000
  C   C149      1.0  0.03404  0.29493  0.69881  1.0000
  C   C150      1.0  0.03108  0.29064  0.75777  1.0000
  O   O109      1.0  0.99291  0.27680  0.84292  1.0000
  O   O110      1.0  0.92855  0.26611  0.78023  1.0000
  H   H37       1.0  0.94200  0.27585  0.67114  1.0000
  O   O111      1.0  0.00410  0.29367  0.60919  1.0000
  O   O112      1.0  0.06886  0.30443  0.67217  1.0000
  H   H38       1.0  0.05514  0.29463  0.78121  1.0000
  Cu  Cu10      1.0  0.05889  0.30722  0.59001  1.0000
  C   C151      1.0  0.74726  0.67150  0.78515  1.0000
  C   C152      1.0  0.75255  0.64435  0.75352  1.0000
  C   C153      1.0  0.74827  0.64292  0.69459  1.0000
  C   C154      1.0  0.73868  0.66863  0.66713  1.0000
  C   C155      1.0  0.73337  0.69588  0.69880  1.0000
  C   C156      1.0  0.73768  0.69723  0.75776  1.0000
  O   O113      1.0  0.75146  0.67290  0.84296  1.0000
  O   O114      1.0  0.76195  0.61912  0.78037  1.0000
  H   H39       1.0  0.75220  0.62280  0.67127  1.0000
  O   O115      1.0  0.73450  0.66713  0.60923  1.0000
  O   O116      1.0  0.72395  0.72123  0.67212  1.0000
  H   H40       1.0  0.73376  0.71733  0.78116  1.0000
  Cu  Cu11      1.0  0.72109  0.70842  0.58997  1.0000
  C   C157      1.0  0.38387  0.06487  0.75347  1.0000
  C   C158      1.0  0.35676  0.03239  0.78516  1.0000
  C   C159      1.0  0.33098  0.99699  0.75797  1.0000
  C   C160      1.0  0.33223  0.99397  0.69903  1.0000
  C   C161      1.0  0.35941  0.02653  0.66719  1.0000
  C   C162      1.0  0.38517  0.06190  0.69453  1.0000
  O   O117      1.0  0.40917  0.09960  0.78015  1.0000
  O   O118      1.0  0.35549  0.03530  0.84296  1.0000
  H   H41       1.0  0.31093  0.97299  0.78151  1.0000
  O   O119      1.0  0.30684  0.95914  0.67249  1.0000
  O   O120      1.0  0.36081  0.02378  0.60926  1.0000
  H   H42       1.0  0.40523  0.08594  0.67106  1.0000
  Cu  Cu12      1.0  0.31942  0.96890  0.59034  1.0000
  C   C163      1.0  0.74656  0.03178  0.78562  1.0000
  C   C164      1.0  0.75192  0.06425  0.75397  1.0000
  C   C165      1.0  0.74750  0.06135  0.69507  1.0000
  C   C166      1.0  0.73770  0.02598  0.66765  1.0000
  C   C167      1.0  0.73231  0.99338  0.69934  1.0000
  C   C168      1.0  0.73676  0.99638  0.75828  1.0000
  O   O121      1.0  0.75090  0.03461  0.84342  1.0000
  O   O122      1.0  0.76153  0.09895  0.78078  1.0000
  H   H43       1.0  0.75148  0.08543  0.67172  1.0000
  O   O123      1.0  0.73338  0.02327  0.60977  1.0000
  O   O124      1.0  0.72267  0.95853  0.67270  1.0000
  H   H44       1.0  0.73278  0.97234  0.78170  1.0000
  Cu  Cu13      1.0  0.71968  0.96846  0.59057  1.0000
  C   C169      1.0  0.99609  0.67112  0.78561  1.0000
  C   C170      1.0  0.96357  0.64403  0.75396  1.0000
  C   C171      1.0  0.96646  0.64253  0.69505  1.0000
  C   C172      1.0  0.00186  0.66811  0.66765  1.0000
  C   C173      1.0  0.03450  0.69530  0.69935  1.0000
  C   C174      1.0  0.03151  0.69673  0.75829  1.0000
  O   O125      1.0  0.99326  0.67260  0.84341  1.0000
  O   O126      1.0  0.92884  0.61892  0.78075  1.0000
  H   H45       1.0  0.94235  0.62245  0.67170  1.0000
  O   O127      1.0  0.00457  0.66653  0.60976  1.0000
  O   O128      1.0  0.06938  0.72053  0.67272  1.0000
  H   H46       1.0  0.05559  0.71679  0.78172  1.0000
  Cu  Cu14      1.0  0.05943  0.70765  0.59058  1.0000
  C   C175      1.0  0.38371  0.27599  0.75412  1.0000
  C   C176      1.0  0.35657  0.28129  0.78576  1.0000
  C   C177      1.0  0.33090  0.29103  0.75856  1.0000
  C   C178      1.0  0.33230  0.29549  0.69963  1.0000
  C   C179      1.0  0.35951  0.29018  0.66784  1.0000
  C   C180      1.0  0.38515  0.28044  0.69520  1.0000
  O   O129      1.0  0.40890  0.26644  0.78081  1.0000
  O   O130      1.0  0.35515  0.27693  0.84354  1.0000
  H   H47       1.0  0.31083  0.29494  0.78206  1.0000
  O   O131      1.0  0.30702  0.30506  0.67308  1.0000
  O   O132      1.0  0.36105  0.29452  0.60993  1.0000
  H   H48       1.0  0.40524  0.27652  0.67176  1.0000
  Cu  Cu15      1.0  0.31979  0.30812  0.59097  1.0000
