data_image0
_chemical_formula_structural       Fe6C6O6C6O6C6O6C6O6C6O6C6O6Fe6C6HO2HO2C6HO2HO2C6HO2HO2Cu3C6HO2HO2C6HO2HO2C6HO2HO2C6HO2HO2C6HO2HO2C6HO2HO2C6HO2HO2C6HO2HO2C6HO2HO2
_chemical_formula_sum              "Fe12 C108 O84 H24 Cu3"
_cell_length_a       31.8671
_cell_length_b       32.1022
_cell_length_c       12.3384
_cell_angle_alpha    90.096
_cell_angle_beta     90.0803
_cell_angle_gamma    119.979

_space_group_name_H-M_alt    "P 1"
_space_group_IT_number       1

loop_
  _space_group_symop_operation_xyz
  'x, y, z'

loop_
  _atom_site_type_symbol
  _atom_site_label
  _atom_site_symmetry_multiplicity
  _atom_site_fract_x
  _atom_site_fract_y
  _atom_site_fract_z
  _atom_site_occupancy
  Fe  Fe1       1.0  0.35718  0.01114  0.09689  1.0000
  Fe  Fe2       1.0  0.02370  0.44362  0.09853  1.0000
  Fe  Fe3       1.0  0.59058  0.67784  0.09776  1.0000
  Fe  Fe4       1.0  0.59128  0.00998  0.09677  1.0000
  Fe  Fe5       1.0  0.02504  0.67724  0.09847  1.0000
  Fe  Fe6       1.0  0.35790  0.44310  0.09768  1.0000
  C   C1        1.0  0.02764  0.35057  0.42956  1.0000
  C   C2        1.0  0.07240  0.36396  0.38159  1.0000
  C   C3        1.0  0.08589  0.39088  0.28588  1.0000
  C   C4        1.0  0.05464  0.40442  0.23815  1.0000
  C   C5        1.0  0.00988  0.39104  0.28613  1.0000
  C   C6        1.0  0.99638  0.36411  0.38184  1.0000
  O   O1        1.0  0.01549  0.32634  0.51570  1.0000
  O   O2        1.0  0.10053  0.35177  0.42454  1.0000
  O   O3        1.0  0.12618  0.40293  0.24270  1.0000
  O   O4        1.0  0.06679  0.42866  0.15201  1.0000
  O   O5        1.0  0.98175  0.40323  0.24317  1.0000
  O   O6        1.0  0.95610  0.35207  0.42502  1.0000
  C   C7        1.0  0.64355  0.71658  0.28611  1.0000
  C   C8        1.0  0.67068  0.73010  0.38213  1.0000
  C   C9        1.0  0.68435  0.77468  0.42999  1.0000
  C   C10       1.0  0.67089  0.80574  0.38182  1.0000
  C   C11       1.0  0.64376  0.79222  0.28580  1.0000
  C   C12       1.0  0.63009  0.74764  0.23794  1.0000
  O   O7        1.0  0.63124  0.67646  0.24303  1.0000
  O   O8        1.0  0.68280  0.70215  0.42548  1.0000
  O   O9        1.0  0.70877  0.78685  0.51641  1.0000
  O   O10       1.0  0.68320  0.84586  0.42489  1.0000
  O   O11       1.0  0.63165  0.82017  0.24245  1.0000
  O   O12       1.0  0.60567  0.73547  0.15152  1.0000
  C   C13       1.0  0.30431  0.03855  0.37993  1.0000
  C   C14       1.0  0.31794  0.02514  0.28405  1.0000
  C   C15       1.0  0.28699  0.98042  0.23639  1.0000
  C   C16       1.0  0.24240  0.94912  0.28460  1.0000
  C   C17       1.0  0.22877  0.96253  0.38048  1.0000
  C   C18       1.0  0.25973  0.00724  0.42814  1.0000
  O   O13       1.0  0.33217  0.07879  0.42283  1.0000
  O   O14       1.0  0.35807  0.05332  0.24066  1.0000
  O   O15       1.0  0.29925  0.96836  0.15009  1.0000
  O   O16       1.0  0.21454  0.90887  0.24170  1.0000
  O   O17       1.0  0.18864  0.93435  0.42387  1.0000
  O   O18       1.0  0.24746  0.01931  0.51444  1.0000
  C   C19       1.0  0.30538  0.36332  0.38053  1.0000
  C   C20       1.0  0.31888  0.39025  0.28482  1.0000
  C   C21       1.0  0.28762  0.40379  0.23710  1.0000
  C   C22       1.0  0.24286  0.39041  0.28508  1.0000
  C   C23       1.0  0.22937  0.36348  0.38079  1.0000
  C   C24       1.0  0.26062  0.34994  0.42851  1.0000
  O   O19       1.0  0.33351  0.35113  0.42348  1.0000
  O   O20       1.0  0.35916  0.40230  0.24164  1.0000
  O   O21       1.0  0.29976  0.42803  0.15096  1.0000
  O   O22       1.0  0.21473  0.40259  0.24213  1.0000
  O   O23       1.0  0.18909  0.35143  0.42397  1.0000
  O   O24       1.0  0.24848  0.32570  0.51465  1.0000
  C   C25       1.0  0.68520  0.00672  0.42869  1.0000
  C   C26       1.0  0.67154  0.96214  0.38084  1.0000
  C   C27       1.0  0.64440  0.94861  0.28482  1.0000
  C   C28       1.0  0.63094  0.97967  0.23665  1.0000
  C   C29       1.0  0.64461  0.02425  0.28451  1.0000
  C   C30       1.0  0.67174  0.03777  0.38053  1.0000
  O   O25       1.0  0.70962  0.01889  0.51511  1.0000
  O   O26       1.0  0.68365  0.93419  0.42419  1.0000
  O   O27       1.0  0.63210  0.90849  0.24175  1.0000
  O   O28       1.0  0.60652  0.96749  0.15023  1.0000
  O   O29       1.0  0.63249  0.05220  0.24116  1.0000
  O   O30       1.0  0.68404  0.07789  0.42360  1.0000
  C   C31       1.0  0.05557  0.74713  0.23858  1.0000
  C   C32       1.0  0.08653  0.79185  0.28625  1.0000
  C   C33       1.0  0.07290  0.80526  0.38212  1.0000
  C   C34       1.0  0.02832  0.77395  0.43033  1.0000
  C   C35       1.0  0.99736  0.72924  0.38266  1.0000
  C   C36       1.0  0.01099  0.71583  0.28679  1.0000
  O   O31       1.0  0.06784  0.73506  0.15229  1.0000
  O   O32       1.0  0.12666  0.82002  0.24286  1.0000
  O   O33       1.0  0.10077  0.84550  0.42503  1.0000
  O   O34       1.0  0.01605  0.78602  0.51662  1.0000
  O   O35       1.0  0.95723  0.70106  0.42605  1.0000
  O   O36       1.0  0.98313  0.67558  0.24388  1.0000
  Fe  Fe7       1.0  0.72398  0.74433  0.56987  1.0000
  Fe  Fe8       1.0  0.29025  0.07714  0.56825  1.0000
  Fe  Fe9       1.0  0.95735  0.31127  0.56895  1.0000
  Fe  Fe10      1.0  0.95812  0.74324  0.56982  1.0000
  Fe  Fe11      1.0  0.29156  0.31074  0.56812  1.0000
  Fe  Fe12      1.0  0.72469  0.07650  0.56887  1.0000
  C   C37       1.0  0.49701  0.05543  0.06231  1.0000
  C   C38       1.0  0.44720  0.03225  0.08304  1.0000
  C   C39       1.0  0.42343  0.98542  0.12441  1.0000
  C   C40       1.0  0.44948  0.96177  0.14506  1.0000
  C   C41       1.0  0.49929  0.98495  0.12432  1.0000
  C   C42       1.0  0.52305  0.03178  0.08295  1.0000
  H   H1        1.0  0.51483  0.09055  0.03128  1.0000
  O   O37       1.0  0.42376  0.05354  0.06446  1.0000
  O   O38       1.0  0.37860  0.96456  0.14307  1.0000
  H   H2        1.0  0.43165  0.92665  0.17609  1.0000
  O   O39       1.0  0.52273  0.96366  0.14290  1.0000
  O   O40       1.0  0.56788  0.05264  0.06429  1.0000
  C   C43       1.0  0.07351  0.58458  0.14737  1.0000
  C   C44       1.0  0.04965  0.53509  0.12643  1.0000
  C   C45       1.0  0.00248  0.51191  0.08448  1.0000
  C   C46       1.0  0.97917  0.53822  0.06347  1.0000
  C   C47       1.0  0.00303  0.58772  0.08441  1.0000
  C   C48       1.0  0.05020  0.61090  0.12636  1.0000
  H   H3        1.0  0.10889  0.60197  0.17884  1.0000
  O   O41       1.0  0.07063  0.51141  0.14535  1.0000
  O   O42       1.0  0.98101  0.46737  0.06564  1.0000
  H   H4        1.0  0.94379  0.52084  0.03200  1.0000
  O   O43       1.0  0.98205  0.61140  0.06549  1.0000
  O   O44       1.0  0.07167  0.65544  0.14520  1.0000
  C   C49       1.0  0.49743  0.53861  0.06293  1.0000
  C   C50       1.0  0.44766  0.51192  0.08381  1.0000
  C   C51       1.0  0.42347  0.53475  0.12549  1.0000
  C   C52       1.0  0.44905  0.58426  0.14629  1.0000
  C   C53       1.0  0.49883  0.61095  0.12541  1.0000
  C   C54       1.0  0.52302  0.58812  0.08374  1.0000
  H   H5        1.0  0.51557  0.52149  0.03168  1.0000
  O   O45       1.0  0.42463  0.46736  0.06509  1.0000
  O   O46       1.0  0.37867  0.51073  0.14427  1.0000
  H   H6        1.0  0.43091  0.60138  0.17755  1.0000
  O   O47       1.0  0.52185  0.65551  0.14414  1.0000
  O   O48       1.0  0.56781  0.61214  0.06495  1.0000
  Cu  Cu1       1.0  0.15763  0.37718  0.33334  1.0000
  Cu  Cu2       1.0  0.65765  0.87718  0.33332  1.0000
  Cu  Cu3       1.0  0.15765  0.87719  0.33336  1.0000
  C   C55       1.0  0.86579  0.79257  0.52159  1.0000
  C   C56       1.0  0.81598  0.76938  0.54232  1.0000
  C   C57       1.0  0.79223  0.72255  0.58372  1.0000
  C   C58       1.0  0.81828  0.69892  0.60439  1.0000
  C   C59       1.0  0.86809  0.72211  0.58366  1.0000
  C   C60       1.0  0.89185  0.76893  0.54226  1.0000
  H   H7        1.0  0.88360  0.82769  0.49054  1.0000
  O   O49       1.0  0.79253  0.79065  0.52372  1.0000
  O   O50       1.0  0.74740  0.70168  0.60238  1.0000
  H   H8        1.0  0.80047  0.66380  0.63544  1.0000
  O   O51       1.0  0.89155  0.70083  0.60226  1.0000
  O   O52       1.0  0.93668  0.78980  0.52360  1.0000
  C   C61       1.0  0.33610  0.21615  0.60326  1.0000
  C   C62       1.0  0.31225  0.16665  0.58232  1.0000
  C   C63       1.0  0.26508  0.14347  0.54032  1.0000
  C   C64       1.0  0.24177  0.16978  0.51927  1.0000
  C   C65       1.0  0.26562  0.21927  0.54021  1.0000
  C   C66       1.0  0.31278  0.24245  0.58221  1.0000
  H   H9        1.0  0.37147  0.23353  0.63476  1.0000
  O   O53       1.0  0.33323  0.14298  0.60126  1.0000
  O   O54       1.0  0.24362  0.09893  0.52147  1.0000
  H   H10       1.0  0.20640  0.15239  0.48777  1.0000
  O   O55       1.0  0.24464  0.24295  0.52127  1.0000
  O   O56       1.0  0.33425  0.28700  0.60106  1.0000
  C   C67       1.0  0.86621  0.17011  0.52029  1.0000
  C   C68       1.0  0.81644  0.14341  0.54119  1.0000
  C   C69       1.0  0.79224  0.16623  0.58293  1.0000
  C   C70       1.0  0.81782  0.21574  0.60376  1.0000
  C   C71       1.0  0.86759  0.24243  0.58285  1.0000
  C   C72       1.0  0.89178  0.21962  0.54112  1.0000
  H   H11       1.0  0.88435  0.15300  0.48898  1.0000
  O   O57       1.0  0.79341  0.09885  0.52245  1.0000
  O   O58       1.0  0.74745  0.14220  0.60174  1.0000
  H   H12       1.0  0.79968  0.23285  0.63506  1.0000
  O   O59       1.0  0.89061  0.28699  0.60160  1.0000
  O   O60       1.0  0.93658  0.24365  0.52230  1.0000
  C   C73       1.0  0.01362  0.42137  0.77845  1.0000
  C   C74       1.0  0.99194  0.37808  0.72026  1.0000
  C   C75       1.0  0.97001  0.33418  0.77553  1.0000
  C   C76       1.0  0.96975  0.33357  0.88899  1.0000
  C   C77       1.0  0.99143  0.37686  0.94717  1.0000
  C   C78       1.0  0.01336  0.42076  0.89190  1.0000
  H   H13       1.0  0.03007  0.45430  0.73700  1.0000
  O   O61       1.0  0.99217  0.37863  0.61815  1.0000
  O   O62       1.0  0.95050  0.29521  0.72316  1.0000
  H   H14       1.0  0.95330  0.30064  0.93044  1.0000
  O   O63       1.0  0.99120  0.37631  0.04928  1.0000
  O   O64       1.0  0.03287  0.45973  0.94427  1.0000
  C   C79       1.0  0.70142  0.73446  0.88980  1.0000
  C   C80       1.0  0.65776  0.71270  0.94725  1.0000
  C   C81       1.0  0.61358  0.69065  0.89124  1.0000
  C   C82       1.0  0.61308  0.69038  0.77778  1.0000
  C   C83       1.0  0.65675  0.71214  0.72032  1.0000
  C   C84       1.0  0.70092  0.73418  0.77633  1.0000
  H   H15       1.0  0.73455  0.75099  0.93181  1.0000
  O   O65       1.0  0.65821  0.71294  0.04937  1.0000
  O   O66       1.0  0.57428  0.67106  0.94295  1.0000
  H   H16       1.0  0.57995  0.67384  0.73577  1.0000
  O   O67       1.0  0.65630  0.71189  0.61821  1.0000
  O   O68       1.0  0.74022  0.75377  0.72463  1.0000
  C   C85       1.0  0.30043  0.06497  0.88831  1.0000
  C   C86       1.0  0.30058  0.06457  0.77485  1.0000
  C   C87       1.0  0.32257  0.04252  0.71917  1.0000
  C   C88       1.0  0.34442  0.02086  0.77696  1.0000
  C   C89       1.0  0.34427  0.02126  0.89042  1.0000
  C   C90       1.0  0.32227  0.04332  0.94610  1.0000
  H   H17       1.0  0.28394  0.08151  0.93007  1.0000
  O   O69       1.0  0.28092  0.08406  0.72285  1.0000
  O   O70       1.0  0.32271  0.04216  0.61706  1.0000
  H   H18       1.0  0.36091  0.00432  0.73520  1.0000
  O   O71       1.0  0.36393  0.00177  0.94242  1.0000
  O   O72       1.0  0.32214  0.04368  0.04821  1.0000
  C   C91       1.0  0.70218  0.06405  0.88886  1.0000
  C   C92       1.0  0.65851  0.04222  0.94631  1.0000
  C   C93       1.0  0.61434  0.02009  0.89029  1.0000
  C   C94       1.0  0.61384  0.01977  0.77683  1.0000
  C   C95       1.0  0.65751  0.04159  0.71938  1.0000
  C   C96       1.0  0.70168  0.06373  0.77539  1.0000
  H   H19       1.0  0.73531  0.08065  0.93087  1.0000
  O   O73       1.0  0.65897  0.04251  0.04842  1.0000
  O   O74       1.0  0.57504  0.00010  0.94200  1.0000
  H   H20       1.0  0.58071  0.00317  0.73482  1.0000
  O   O75       1.0  0.65706  0.04130  0.61726  1.0000
  O   O76       1.0  0.74099  0.08337  0.72369  1.0000
  C   C97       1.0  0.01485  0.68939  0.77841  1.0000
  C   C98       1.0  0.99301  0.71106  0.72062  1.0000
  C   C99       1.0  0.97103  0.73313  0.77630  1.0000
  C   C100      1.0  0.97089  0.73353  0.88976  1.0000
  C   C101      1.0  0.99273  0.71187  0.94755  1.0000
  C   C102      1.0  0.01471  0.68980  0.89187  1.0000
  H   H21       1.0  0.03133  0.67284  0.73665  1.0000
  O   O77       1.0  0.99314  0.71069  0.61851  1.0000
  O   O78       1.0  0.95138  0.75262  0.72429  1.0000
  H   H22       1.0  0.95441  0.75009  0.93152  1.0000
  O   O79       1.0  0.99260  0.71224  0.04966  1.0000
  O   O80       1.0  0.03436  0.67030  0.94387  1.0000
  C   C103      1.0  0.30160  0.33299  0.88820  1.0000
  C   C104      1.0  0.30188  0.33360  0.77474  1.0000
  C   C105      1.0  0.32384  0.37750  0.71947  1.0000
  C   C106      1.0  0.34553  0.42079  0.77765  1.0000
  C   C107      1.0  0.34526  0.42019  0.89110  1.0000
  C   C108      1.0  0.32329  0.37629  0.94638  1.0000
  H   H23       1.0  0.28513  0.30007  0.92966  1.0000
  O   O81       1.0  0.28235  0.29463  0.72238  1.0000
  O   O82       1.0  0.32409  0.37804  0.61736  1.0000
  H   H24       1.0  0.36200  0.45372  0.73619  1.0000
  O   O83       1.0  0.36478  0.45915  0.94346  1.0000
  O   O84       1.0  0.32304  0.37574  0.04849  1.0000
