data_image0
_chemical_formula_structural       C6O6C6O6C6O6C6O6C6O6C6O6C6O6C6O6Cu6Zn6
_chemical_formula_sum              "C48 O48 Cu6 Zn6"
_cell_length_a       32.0378
_cell_length_b       32.0378
_cell_length_c       12.8298
_cell_angle_alpha    90
_cell_angle_beta     90
_cell_angle_gamma    119.773

_space_group_name_H-M_alt    "P 1"
_space_group_IT_number       1

loop_
  _space_group_symop_operation_xyz
  'x, y, z'

loop_
  _atom_site_type_symbol
  _atom_site_label
  _atom_site_symmetry_multiplicity
  _atom_site_fract_x
  _atom_site_fract_y
  _atom_site_fract_z
  _atom_site_occupancy
  C   C1        1.0  0.62340  0.33304  0.25000  1.0000
  C   C2        1.0  0.62351  0.28940  0.25000  1.0000
  C   C3        1.0  0.66716  0.28930  0.25000  1.0000
  C   C4        1.0  0.71070  0.33286  0.25000  1.0000
  C   C5        1.0  0.71059  0.37650  0.25000  1.0000
  C   C6        1.0  0.66694  0.37659  0.25000  1.0000
  O   O1        1.0  0.58411  0.33312  0.25000  1.0000
  O   O2        1.0  0.58432  0.25020  0.25000  1.0000
  O   O3        1.0  0.66725  0.25002  0.25000  1.0000
  O   O4        1.0  0.74999  0.33277  0.25000  1.0000
  O   O5        1.0  0.74979  0.41570  0.25000  1.0000
  O   O6        1.0  0.66685  0.41587  0.24999  1.0000
  C   C7        1.0  0.28941  0.62350  0.75000  1.0000
  C   C8        1.0  0.33306  0.62341  0.75000  1.0000
  C   C9        1.0  0.37660  0.66695  0.75000  1.0000
  C   C10       1.0  0.37650  0.71060  0.75000  1.0000
  C   C11       1.0  0.33285  0.71070  0.75001  1.0000
  C   C12       1.0  0.28930  0.66715  0.75000  1.0000
  O   O7        1.0  0.25021  0.58431  0.75000  1.0000
  O   O8        1.0  0.33315  0.58412  0.75000  1.0000
  O   O9        1.0  0.41589  0.66687  0.75000  1.0000
  O   O10       1.0  0.41569  0.74980  0.75000  1.0000
  O   O11       1.0  0.33276  0.74998  0.75001  1.0000
  O   O12       1.0  0.25002  0.66724  0.75001  1.0000
  C   C13       1.0  0.51239  0.02299  0.19545  1.0000
  C   C14       1.0  0.51239  0.02299  0.30457  1.0000
  C   C15       1.0  0.53436  0.06658  0.35913  1.0000
  C   C16       1.0  0.55634  0.11018  0.30457  1.0000
  C   C17       1.0  0.55634  0.11018  0.19544  1.0000
  C   C18       1.0  0.53436  0.06658  0.14088  1.0000
  O   O13       1.0  0.49261  0.98375  0.14634  1.0000
  O   O14       1.0  0.49261  0.98375  0.35367  1.0000
  O   O15       1.0  0.53436  0.06658  0.45734  1.0000
  O   O16       1.0  0.57612  0.14942  0.35367  1.0000
  O   O17       1.0  0.57612  0.14942  0.14634  1.0000
  O   O18       1.0  0.53436  0.06658  0.04268  1.0000
  C   C19       1.0  0.48847  0.51154  0.80455  1.0000
  C   C20       1.0  0.48847  0.51154  0.69543  1.0000
  C   C21       1.0  0.46660  0.53342  0.64087  1.0000
  C   C22       1.0  0.44473  0.55530  0.69543  1.0000
  C   C23       1.0  0.44473  0.55530  0.80455  1.0000
  C   C24       1.0  0.46660  0.53342  0.85911  1.0000
  O   O19       1.0  0.50816  0.49185  0.85366  1.0000
  O   O20       1.0  0.50815  0.49185  0.64633  1.0000
  O   O21       1.0  0.46660  0.53342  0.54266  1.0000
  O   O22       1.0  0.42505  0.57499  0.64633  1.0000
  O   O23       1.0  0.42505  0.57499  0.85366  1.0000
  O   O24       1.0  0.46660  0.53342  0.95732  1.0000
  C   C25       1.0  0.88983  0.44373  0.30456  1.0000
  C   C26       1.0  0.93342  0.46571  0.35912  1.0000
  C   C27       1.0  0.97702  0.48768  0.30456  1.0000
  C   C28       1.0  0.97702  0.48768  0.19544  1.0000
  C   C29       1.0  0.93342  0.46571  0.14088  1.0000
  C   C30       1.0  0.88983  0.44373  0.19544  1.0000
  O   O25       1.0  0.85059  0.42396  0.35366  1.0000
  O   O26       1.0  0.93342  0.46571  0.45733  1.0000
  O   O27       1.0  0.01626  0.50746  0.35367  1.0000
  O   O28       1.0  0.01626  0.50746  0.14634  1.0000
  O   O29       1.0  0.93342  0.46571  0.04267  1.0000
  O   O30       1.0  0.85059  0.42396  0.14634  1.0000
  C   C31       1.0  0.48764  0.97701  0.69545  1.0000
  C   C32       1.0  0.48764  0.97701  0.80457  1.0000
  C   C33       1.0  0.46566  0.93342  0.85913  1.0000
  C   C34       1.0  0.44368  0.88982  0.80457  1.0000
  C   C35       1.0  0.44368  0.88982  0.69545  1.0000
  C   C36       1.0  0.46566  0.93342  0.64089  1.0000
  O   O31       1.0  0.50742  0.01625  0.64634  1.0000
  O   O32       1.0  0.50742  0.01625  0.85367  1.0000
  O   O33       1.0  0.46566  0.93342  0.95734  1.0000
  O   O34       1.0  0.42390  0.85058  0.85367  1.0000
  O   O35       1.0  0.42390  0.85058  0.64634  1.0000
  O   O36       1.0  0.46566  0.93342  0.54268  1.0000
  C   C37       1.0  0.51150  0.48843  0.30455  1.0000
  C   C38       1.0  0.51150  0.48843  0.19543  1.0000
  C   C39       1.0  0.53338  0.46655  0.14087  1.0000
  C   C40       1.0  0.55525  0.44468  0.19543  1.0000
  C   C41       1.0  0.55525  0.44468  0.30455  1.0000
  C   C42       1.0  0.53338  0.46655  0.35911  1.0000
  O   O37       1.0  0.49182  0.50812  0.35366  1.0000
  O   O38       1.0  0.49182  0.50812  0.14633  1.0000
  O   O39       1.0  0.53338  0.46655  0.04266  1.0000
  O   O40       1.0  0.57493  0.42499  0.14633  1.0000
  O   O41       1.0  0.57493  0.42499  0.35366  1.0000
  O   O42       1.0  0.53338  0.46655  0.45732  1.0000
  C   C43       1.0  0.06658  0.53432  0.64088  1.0000
  C   C44       1.0  0.11018  0.55629  0.69544  1.0000
  C   C45       1.0  0.11018  0.55629  0.80456  1.0000
  C   C46       1.0  0.06658  0.53432  0.85912  1.0000
  C   C47       1.0  0.02299  0.51235  0.80456  1.0000
  C   C48       1.0  0.02298  0.51235  0.69544  1.0000
  O   O43       1.0  0.06658  0.53432  0.54267  1.0000
  O   O44       1.0  0.14942  0.57607  0.64634  1.0000
  O   O45       1.0  0.14942  0.57607  0.85367  1.0000
  O   O46       1.0  0.06658  0.53432  0.95733  1.0000
  O   O47       1.0  0.98375  0.49258  0.85367  1.0000
  O   O48       1.0  0.98375  0.49257  0.64634  1.0000
  Cu  Cu1       1.0  0.50001  0.99990  0.00010  1.0000
  Cu  Cu2       1.0  0.49999  0.49999  0.49999  1.0000
  Cu  Cu3       1.0  0.00010  0.50001  0.00010  1.0000
  Cu  Cu4       1.0  0.50001  0.99990  0.50000  1.0000
  Cu  Cu5       1.0  0.49999  0.49999  0.99990  1.0000
  Cu  Cu6       1.0  0.00010  0.50001  0.50000  1.0000
  Zn  Zn1       1.0  0.60095  0.19976  0.25000  1.0000
  Zn  Zn2       1.0  0.39978  0.60024  0.75000  1.0000
  Zn  Zn3       1.0  0.80024  0.39910  0.25000  1.0000
  Zn  Zn4       1.0  0.39906  0.80024  0.75000  1.0000
  Zn  Zn5       1.0  0.60021  0.39974  0.24999  1.0000
  Zn  Zn6       1.0  0.19976  0.60092  0.75000  1.0000
