data_image0
_chemical_formula_structural       C6O6C6O6C6O6C6O6C6O6C6O6C6O6C6O6Fe8C6HO2HO2C6HO2HO2C6HO2HO2C6HO2HO2Cu4
_chemical_formula_sum              "C72 O64 Fe8 H8 Cu4"
_cell_length_a       16.56
_cell_length_b       16.56
_cell_length_c       22.2123
_cell_angle_alpha    90
_cell_angle_beta     90
_cell_angle_gamma    89.8942

_space_group_name_H-M_alt    "P 1"
_space_group_IT_number       1

loop_
  _space_group_symop_operation_xyz
  'x, y, z'

loop_
  _atom_site_type_symbol
  _atom_site_label
  _atom_site_symmetry_multiplicity
  _atom_site_fract_x
  _atom_site_fract_y
  _atom_site_fract_z
  _atom_site_occupancy
  C   C1        1.0  0.39920  0.27953  0.16680  1.0000
  C   C2        1.0  0.36622  0.30639  0.11231  1.0000
  C   C3        1.0  0.30638  0.36622  0.11231  1.0000
  C   C4        1.0  0.27953  0.39920  0.16680  1.0000
  C   C5        1.0  0.31251  0.37235  0.22128  1.0000
  C   C6        1.0  0.37235  0.31251  0.22128  1.0000
  O   O1        1.0  0.45305  0.22568  0.16680  1.0000
  O   O2        1.0  0.39039  0.27670  0.06327  1.0000
  O   O3        1.0  0.27670  0.39039  0.06327  1.0000
  O   O4        1.0  0.22568  0.45305  0.16680  1.0000
  O   O5        1.0  0.28835  0.40203  0.27032  1.0000
  O   O6        1.0  0.40203  0.28835  0.27032  1.0000
  C   C7        1.0  0.72133  0.39811  0.66680  1.0000
  C   C8        1.0  0.69462  0.36510  0.61232  1.0000
  C   C9        1.0  0.63490  0.30537  0.61232  1.0000
  C   C10       1.0  0.60189  0.27867  0.66680  1.0000
  C   C11       1.0  0.62859  0.31168  0.72128  1.0000
  C   C12       1.0  0.68832  0.37141  0.72128  1.0000
  O   O7        1.0  0.77508  0.45187  0.66680  1.0000
  O   O8        1.0  0.72434  0.38913  0.56328  1.0000
  O   O9        1.0  0.61086  0.27566  0.56328  1.0000
  O   O10       1.0  0.54813  0.22491  0.66680  1.0000
  O   O11       1.0  0.59888  0.28764  0.77032  1.0000
  O   O12       1.0  0.71235  0.40112  0.77032  1.0000
  C   C13       1.0  0.72047  0.60080  0.16680  1.0000
  C   C14       1.0  0.69361  0.63378  0.11231  1.0000
  C   C15       1.0  0.63378  0.69362  0.11231  1.0000
  C   C16       1.0  0.60080  0.72047  0.16680  1.0000
  C   C17       1.0  0.62765  0.68749  0.22128  1.0000
  C   C18       1.0  0.68749  0.62765  0.22128  1.0000
  O   O13       1.0  0.77432  0.54695  0.16680  1.0000
  O   O14       1.0  0.72330  0.60961  0.06327  1.0000
  O   O15       1.0  0.60961  0.72330  0.06327  1.0000
  O   O16       1.0  0.54695  0.77432  0.16680  1.0000
  O   O17       1.0  0.59797  0.71165  0.27032  1.0000
  O   O18       1.0  0.71165  0.59797  0.27032  1.0000
  C   C19       1.0  0.39811  0.72133  0.66680  1.0000
  C   C20       1.0  0.36510  0.69462  0.61232  1.0000
  C   C21       1.0  0.30537  0.63490  0.61232  1.0000
  C   C22       1.0  0.27867  0.60189  0.66680  1.0000
  C   C23       1.0  0.31168  0.62859  0.72128  1.0000
  C   C24       1.0  0.37141  0.68832  0.72128  1.0000
  O   O19       1.0  0.45187  0.77508  0.66680  1.0000
  O   O20       1.0  0.38913  0.72434  0.56328  1.0000
  O   O21       1.0  0.27566  0.61086  0.56328  1.0000
  O   O22       1.0  0.22491  0.54813  0.66680  1.0000
  O   O23       1.0  0.28764  0.59888  0.77032  1.0000
  O   O24       1.0  0.40112  0.71235  0.77032  1.0000
  C   C25       1.0  0.31168  0.62859  0.27872  1.0000
  C   C26       1.0  0.37141  0.68832  0.27872  1.0000
  C   C27       1.0  0.39812  0.72134  0.33320  1.0000
  C   C28       1.0  0.36510  0.69463  0.38768  1.0000
  C   C29       1.0  0.30538  0.63490  0.38768  1.0000
  C   C30       1.0  0.27867  0.60189  0.33320  1.0000
  O   O25       1.0  0.28765  0.59888  0.22968  1.0000
  O   O26       1.0  0.40112  0.71236  0.22968  1.0000
  O   O27       1.0  0.45187  0.77509  0.33320  1.0000
  O   O28       1.0  0.38914  0.72434  0.43672  1.0000
  O   O29       1.0  0.27566  0.61086  0.43672  1.0000
  O   O30       1.0  0.22491  0.54813  0.33320  1.0000
  C   C31       1.0  0.39920  0.27953  0.83320  1.0000
  C   C32       1.0  0.36622  0.30639  0.88769  1.0000
  C   C33       1.0  0.30638  0.36622  0.88769  1.0000
  C   C34       1.0  0.27953  0.39920  0.83320  1.0000
  C   C35       1.0  0.31251  0.37235  0.77872  1.0000
  C   C36       1.0  0.37235  0.31251  0.77872  1.0000
  O   O31       1.0  0.45305  0.22568  0.83320  1.0000
  O   O32       1.0  0.39039  0.27670  0.93673  1.0000
  O   O33       1.0  0.27670  0.39039  0.93673  1.0000
  O   O34       1.0  0.22568  0.45305  0.83320  1.0000
  O   O35       1.0  0.28835  0.40203  0.72968  1.0000
  O   O36       1.0  0.40203  0.28835  0.72968  1.0000
  C   C37       1.0  0.62859  0.31168  0.27872  1.0000
  C   C38       1.0  0.68832  0.37141  0.27872  1.0000
  C   C39       1.0  0.72134  0.39812  0.33320  1.0000
  C   C40       1.0  0.69463  0.36510  0.38768  1.0000
  C   C41       1.0  0.63490  0.30538  0.38768  1.0000
  C   C42       1.0  0.60189  0.27867  0.33320  1.0000
  O   O37       1.0  0.59888  0.28765  0.22968  1.0000
  O   O38       1.0  0.71236  0.40112  0.22968  1.0000
  O   O39       1.0  0.77509  0.45187  0.33320  1.0000
  O   O40       1.0  0.72434  0.38914  0.43672  1.0000
  O   O41       1.0  0.61086  0.27566  0.43672  1.0000
  O   O42       1.0  0.54813  0.22491  0.33320  1.0000
  C   C43       1.0  0.72047  0.60080  0.83320  1.0000
  C   C44       1.0  0.69361  0.63378  0.88769  1.0000
  C   C45       1.0  0.63378  0.69362  0.88769  1.0000
  C   C46       1.0  0.60080  0.72047  0.83320  1.0000
  C   C47       1.0  0.62765  0.68749  0.77872  1.0000
  C   C48       1.0  0.68749  0.62765  0.77872  1.0000
  O   O43       1.0  0.77432  0.54695  0.83320  1.0000
  O   O44       1.0  0.72330  0.60961  0.93673  1.0000
  O   O45       1.0  0.60961  0.72330  0.93673  1.0000
  O   O46       1.0  0.54695  0.77432  0.83320  1.0000
  O   O47       1.0  0.59797  0.71165  0.72968  1.0000
  O   O48       1.0  0.71165  0.59797  0.72968  1.0000
  Fe  Fe1       1.0  0.22533  0.50030  0.25003  1.0000
  Fe  Fe2       1.0  0.50030  0.22533  0.74997  1.0000
  Fe  Fe3       1.0  0.77467  0.49970  0.25003  1.0000
  Fe  Fe4       1.0  0.49970  0.77467  0.74997  1.0000
  Fe  Fe5       1.0  0.77467  0.49970  0.74997  1.0000
  Fe  Fe6       1.0  0.49970  0.77467  0.25003  1.0000
  Fe  Fe7       1.0  0.22533  0.50030  0.74997  1.0000
  Fe  Fe8       1.0  0.50030  0.22533  0.25003  1.0000
  C   C49       1.0  0.99990  0.58454  0.25004  1.0000
  C   C50       1.0  0.07308  0.54236  0.25004  1.0000
  C   C51       1.0  0.07335  0.45782  0.25004  1.0000
  C   C52       1.0  0.00010  0.41546  0.25004  1.0000
  C   C53       1.0  0.92692  0.45763  0.25004  1.0000
  C   C54       1.0  0.92665  0.54218  0.25004  1.0000
  H   H1        1.0  0.99990  0.64795  0.25004  1.0000
  O   O49       1.0  0.13886  0.58049  0.25004  1.0000
  O   O50       1.0  0.13936  0.41986  0.25004  1.0000
  H   H2        1.0  0.00010  0.35205  0.25004  1.0000
  O   O51       1.0  0.86114  0.41951  0.25004  1.0000
  O   O52       1.0  0.86064  0.58014  0.25004  1.0000
  C   C55       1.0  0.58454  0.99990  0.74996  1.0000
  C   C56       1.0  0.54218  0.92665  0.74996  1.0000
  C   C57       1.0  0.45764  0.92692  0.74996  1.0000
  C   C58       1.0  0.41546  0.00010  0.74996  1.0000
  C   C59       1.0  0.45782  0.07335  0.74996  1.0000
  C   C60       1.0  0.54236  0.07308  0.74996  1.0000
  H   H3        1.0  0.64795  0.99990  0.74996  1.0000
  O   O53       1.0  0.58014  0.86064  0.74996  1.0000
  O   O54       1.0  0.41951  0.86114  0.74996  1.0000
  H   H4        1.0  0.35205  0.00010  0.74996  1.0000
  O   O55       1.0  0.41986  0.13936  0.74996  1.0000
  O   O56       1.0  0.58049  0.13886  0.74996  1.0000
  C   C61       1.0  0.99990  0.58454  0.74996  1.0000
  C   C62       1.0  0.92665  0.54218  0.74996  1.0000
  C   C63       1.0  0.92692  0.45764  0.74996  1.0000
  C   C64       1.0  0.00010  0.41546  0.74996  1.0000
  C   C65       1.0  0.07335  0.45782  0.74996  1.0000
  C   C66       1.0  0.07308  0.54236  0.74996  1.0000
  H   H5        1.0  0.99990  0.64795  0.74996  1.0000
  O   O57       1.0  0.86064  0.58014  0.74996  1.0000
  O   O58       1.0  0.86114  0.41951  0.74996  1.0000
  H   H6        1.0  0.00010  0.35205  0.74996  1.0000
  O   O59       1.0  0.13936  0.41986  0.74996  1.0000
  O   O60       1.0  0.13886  0.58049  0.74996  1.0000
  C   C67       1.0  0.58454  0.99990  0.25004  1.0000
  C   C68       1.0  0.54218  0.92665  0.25004  1.0000
  C   C69       1.0  0.45764  0.92692  0.25004  1.0000
  C   C70       1.0  0.41546  0.00010  0.25004  1.0000
  C   C71       1.0  0.45782  0.07335  0.25004  1.0000
  C   C72       1.0  0.54236  0.07308  0.25004  1.0000
  H   H7        1.0  0.64795  0.99990  0.25004  1.0000
  O   O61       1.0  0.58014  0.86064  0.25004  1.0000
  O   O62       1.0  0.41951  0.86114  0.25004  1.0000
  H   H8        1.0  0.35205  0.00010  0.25004  1.0000
  O   O63       1.0  0.41986  0.13936  0.25004  1.0000
  O   O64       1.0  0.58049  0.13886  0.25004  1.0000
  Cu  Cu1       1.0  0.33354  0.33354  0.00010  1.0000
  Cu  Cu2       1.0  0.66760  0.33240  0.50000  1.0000
  Cu  Cu3       1.0  0.66646  0.66646  0.00010  1.0000
  Cu  Cu4       1.0  0.33240  0.66760  0.50000  1.0000
