data_image0
_chemical_formula_structural       C6O6C6O6C6O6C6O6C6O6C6O6C6O6C6O6Fe8C6HO2HO2C6HO2HO2C6HO2HO2C6HO2HO2C6O2HO2HCuC6O2HO2HCuC6O2HO2HCuC6O2HO2HCuC6O2HO2HCuC6O2HO2HCuC6O2HO2HCuC6O2HO2HCuC6O2HO2HCuC6O2HO2HCuC6O2HO2HCuC6O2HO2HCuC6O2HO2HCuC6O2HO2HCuC6O2HO2HCuC6O2HO2HCu5
_chemical_formula_sum              "C168 O128 Fe8 H40 Cu20"
_cell_length_a       37.0594
_cell_length_b       37.0594
_cell_length_c       38.2049
_cell_angle_alpha    90.0002
_cell_angle_beta     90.0002
_cell_angle_gamma    89.9934

_space_group_name_H-M_alt    "P 1"
_space_group_IT_number       1

loop_
  _space_group_symop_operation_xyz
  'x, y, z'

loop_
  _atom_site_type_symbol
  _atom_site_label
  _atom_site_symmetry_multiplicity
  _atom_site_fract_x
  _atom_site_fract_y
  _atom_site_fract_z
  _atom_site_occupancy
  C   C1        1.0  0.29135  0.23792  0.09787  1.0000
  C   C2        1.0  0.27477  0.24806  0.06645  1.0000
  C   C3        1.0  0.24806  0.27477  0.06645  1.0000
  C   C4        1.0  0.23792  0.29135  0.09787  1.0000
  C   C5        1.0  0.25450  0.28122  0.12930  1.0000
  C   C6        1.0  0.28122  0.25450  0.12930  1.0000
  O   O1        1.0  0.31539  0.21388  0.09787  1.0000
  O   O2        1.0  0.28389  0.23314  0.03816  1.0000
  O   O3        1.0  0.23313  0.28389  0.03816  1.0000
  O   O4        1.0  0.21388  0.31539  0.09787  1.0000
  O   O5        1.0  0.24538  0.29614  0.15758  1.0000
  O   O6        1.0  0.29614  0.24538  0.15758  1.0000
  C   C7        1.0  0.76220  0.29122  0.59788  1.0000
  C   C8        1.0  0.75208  0.27463  0.56645  1.0000
  C   C9        1.0  0.72537  0.24792  0.56645  1.0000
  C   C10       1.0  0.70878  0.23780  0.59788  1.0000
  C   C11       1.0  0.71890  0.25438  0.62930  1.0000
  C   C12       1.0  0.74561  0.28110  0.62930  1.0000
  O   O7        1.0  0.78624  0.31526  0.59787  1.0000
  O   O8        1.0  0.76701  0.28374  0.53817  1.0000
  O   O9        1.0  0.71626  0.23299  0.53817  1.0000
  O   O10       1.0  0.68474  0.21376  0.59788  1.0000
  O   O11       1.0  0.70397  0.24527  0.65758  1.0000
  O   O12       1.0  0.75472  0.29603  0.65758  1.0000
  C   C13       1.0  0.76207  0.70864  0.09788  1.0000
  C   C14       1.0  0.75193  0.72522  0.06645  1.0000
  C   C15       1.0  0.72522  0.75194  0.06645  1.0000
  C   C16       1.0  0.70864  0.76207  0.09787  1.0000
  C   C17       1.0  0.71878  0.74549  0.12930  1.0000
  C   C18       1.0  0.74549  0.71878  0.12930  1.0000
  O   O13       1.0  0.78611  0.68460  0.09787  1.0000
  O   O14       1.0  0.76685  0.71610  0.03817  1.0000
  O   O15       1.0  0.71610  0.76686  0.03817  1.0000
  O   O16       1.0  0.68460  0.78611  0.09787  1.0000
  O   O17       1.0  0.70386  0.75461  0.15758  1.0000
  O   O18       1.0  0.75461  0.70386  0.15758  1.0000
  C   C19       1.0  0.29122  0.76220  0.59787  1.0000
  C   C20       1.0  0.27463  0.75208  0.56645  1.0000
  C   C21       1.0  0.24792  0.72537  0.56645  1.0000
  C   C22       1.0  0.23779  0.70878  0.59788  1.0000
  C   C23       1.0  0.25438  0.71890  0.62930  1.0000
  C   C24       1.0  0.28109  0.74561  0.62930  1.0000
  O   O19       1.0  0.31526  0.78624  0.59787  1.0000
  O   O20       1.0  0.28374  0.76701  0.53817  1.0000
  O   O21       1.0  0.23299  0.71626  0.53817  1.0000
  O   O22       1.0  0.21375  0.68474  0.59788  1.0000
  O   O23       1.0  0.24527  0.70397  0.65758  1.0000
  O   O24       1.0  0.29603  0.75472  0.65758  1.0000
  C   C25       1.0  0.25438  0.71891  0.37070  1.0000
  C   C26       1.0  0.28109  0.74562  0.37070  1.0000
  C   C27       1.0  0.29122  0.76221  0.40212  1.0000
  C   C28       1.0  0.27463  0.75208  0.43354  1.0000
  C   C29       1.0  0.24792  0.72537  0.43354  1.0000
  C   C30       1.0  0.23779  0.70879  0.40212  1.0000
  O   O25       1.0  0.24527  0.70398  0.34242  1.0000
  O   O26       1.0  0.29602  0.75473  0.34242  1.0000
  O   O27       1.0  0.31526  0.78625  0.40212  1.0000
  O   O28       1.0  0.28374  0.76701  0.46183  1.0000
  O   O29       1.0  0.23299  0.71626  0.46182  1.0000
  O   O30       1.0  0.21375  0.68475  0.40212  1.0000
  C   C31       1.0  0.29136  0.23793  0.90213  1.0000
  C   C32       1.0  0.27478  0.24806  0.93356  1.0000
  C   C33       1.0  0.24806  0.27478  0.93356  1.0000
  C   C34       1.0  0.23793  0.29136  0.90213  1.0000
  C   C35       1.0  0.25451  0.28122  0.87071  1.0000
  C   C36       1.0  0.28122  0.25451  0.87071  1.0000
  O   O31       1.0  0.31540  0.21389  0.90213  1.0000
  O   O32       1.0  0.28390  0.23314  0.96184  1.0000
  O   O33       1.0  0.23314  0.28390  0.96184  1.0000
  O   O34       1.0  0.21389  0.31540  0.90213  1.0000
  O   O35       1.0  0.24539  0.29614  0.84242  1.0000
  O   O36       1.0  0.29615  0.24539  0.84242  1.0000
  C   C37       1.0  0.71891  0.25438  0.37070  1.0000
  C   C38       1.0  0.74562  0.28109  0.37070  1.0000
  C   C39       1.0  0.76221  0.29122  0.40212  1.0000
  C   C40       1.0  0.75208  0.27463  0.43354  1.0000
  C   C41       1.0  0.72537  0.24792  0.43354  1.0000
  C   C42       1.0  0.70879  0.23779  0.40212  1.0000
  O   O37       1.0  0.70398  0.24527  0.34241  1.0000
  O   O38       1.0  0.75473  0.29602  0.34242  1.0000
  O   O39       1.0  0.78625  0.31526  0.40212  1.0000
  O   O40       1.0  0.76701  0.28374  0.46183  1.0000
  O   O41       1.0  0.71626  0.23299  0.46182  1.0000
  O   O42       1.0  0.68475  0.21375  0.40212  1.0000
  C   C43       1.0  0.76207  0.70864  0.90213  1.0000
  C   C44       1.0  0.75193  0.72522  0.93356  1.0000
  C   C45       1.0  0.72522  0.75193  0.93356  1.0000
  C   C46       1.0  0.70864  0.76207  0.90213  1.0000
  C   C47       1.0  0.71878  0.74549  0.87071  1.0000
  C   C48       1.0  0.74549  0.71878  0.87070  1.0000
  O   O43       1.0  0.78611  0.68460  0.90213  1.0000
  O   O44       1.0  0.76685  0.71610  0.96184  1.0000
  O   O45       1.0  0.71610  0.76686  0.96184  1.0000
  O   O46       1.0  0.68460  0.78611  0.90213  1.0000
  O   O47       1.0  0.70385  0.75461  0.84242  1.0000
  O   O48       1.0  0.75461  0.70385  0.84242  1.0000
  Fe  Fe1       1.0  0.10061  0.50003  0.25001  1.0000
  Fe  Fe2       1.0  0.50003  0.10061  0.74999  1.0000
  Fe  Fe3       1.0  0.89939  0.49998  0.25002  1.0000
  Fe  Fe4       1.0  0.49998  0.89939  0.74997  1.0000
  Fe  Fe5       1.0  0.89939  0.49998  0.74998  1.0000
  Fe  Fe6       1.0  0.49998  0.89939  0.25003  1.0000
  Fe  Fe7       1.0  0.10061  0.50003  0.74999  1.0000
  Fe  Fe8       1.0  0.50003  0.10061  0.25001  1.0000
  C   C49       1.0  0.99990  0.53778  0.25002  1.0000
  C   C50       1.0  0.03271  0.51890  0.25002  1.0000
  C   C51       1.0  0.03272  0.48112  0.25002  1.0000
  C   C52       1.0  0.00010  0.46223  0.25002  1.0000
  C   C53       1.0  0.96729  0.48111  0.25002  1.0000
  C   C54       1.0  0.96728  0.51888  0.25002  1.0000
  H   H1        1.0  0.99990  0.56611  0.25002  1.0000
  O   O49       1.0  0.06215  0.53591  0.25001  1.0000
  O   O50       1.0  0.06217  0.46413  0.25001  1.0000
  H   H2        1.0  0.00010  0.43389  0.25002  1.0000
  O   O51       1.0  0.93785  0.46410  0.25003  1.0000
  O   O52       1.0  0.93783  0.53588  0.25003  1.0000
  C   C55       1.0  0.53778  0.99990  0.74998  1.0000
  C   C56       1.0  0.51889  0.96728  0.74998  1.0000
  C   C57       1.0  0.48111  0.96729  0.74998  1.0000
  C   C58       1.0  0.46223  0.00010  0.74998  1.0000
  C   C59       1.0  0.48112  0.03272  0.74998  1.0000
  C   C60       1.0  0.51890  0.03271  0.74999  1.0000
  H   H3        1.0  0.56611  0.99990  0.74998  1.0000
  O   O53       1.0  0.53588  0.93783  0.74997  1.0000
  O   O54       1.0  0.46410  0.93785  0.74997  1.0000
  H   H4        1.0  0.43389  0.00010  0.74998  1.0000
  O   O55       1.0  0.46413  0.06217  0.74999  1.0000
  O   O56       1.0  0.53591  0.06215  0.74999  1.0000
  C   C61       1.0  0.99990  0.53778  0.74998  1.0000
  C   C62       1.0  0.96728  0.51889  0.74998  1.0000
  C   C63       1.0  0.96729  0.48111  0.74998  1.0000
  C   C64       1.0  0.00010  0.46223  0.74998  1.0000
  C   C65       1.0  0.03272  0.48112  0.74998  1.0000
  C   C66       1.0  0.03271  0.51890  0.74998  1.0000
  H   H5        1.0  0.99990  0.56611  0.74998  1.0000
  O   O57       1.0  0.93783  0.53588  0.74997  1.0000
  O   O58       1.0  0.93785  0.46410  0.74997  1.0000
  H   H6        1.0  0.00010  0.43389  0.74998  1.0000
  O   O59       1.0  0.06217  0.46413  0.74999  1.0000
  O   O60       1.0  0.06215  0.53591  0.74999  1.0000
  C   C67       1.0  0.53778  0.99990  0.25002  1.0000
  C   C68       1.0  0.51889  0.96728  0.25002  1.0000
  C   C69       1.0  0.48111  0.96729  0.25002  1.0000
  C   C70       1.0  0.46223  0.00010  0.25002  1.0000
  C   C71       1.0  0.48112  0.03272  0.25001  1.0000
  C   C72       1.0  0.51890  0.03271  0.25001  1.0000
  H   H7        1.0  0.56611  0.99990  0.25002  1.0000
  O   O61       1.0  0.53588  0.93783  0.25003  1.0000
  O   O62       1.0  0.46410  0.93785  0.25003  1.0000
  H   H8        1.0  0.43389  0.00010  0.25002  1.0000
  O   O63       1.0  0.46413  0.06217  0.25001  1.0000
  O   O64       1.0  0.53591  0.06215  0.25001  1.0000
  C   C73       1.0  0.12677  0.45050  0.19881  1.0000
  C   C74       1.0  0.14754  0.44169  0.23263  1.0000
  C   C75       1.0  0.17536  0.41085  0.23302  1.0000
  C   C76       1.0  0.18248  0.38876  0.19960  1.0000
  C   C77       1.0  0.16167  0.39757  0.16566  1.0000
  C   C78       1.0  0.13385  0.42844  0.16537  1.0000
  O   O65       1.0  0.09947  0.48075  0.19843  1.0000
  O   O66       1.0  0.14059  0.46332  0.26542  1.0000
  H   H9        1.0  0.19070  0.40438  0.25809  1.0000
  O   O67       1.0  0.20984  0.35849  0.20012  1.0000
  O   O68       1.0  0.16851  0.37599  0.13271  1.0000
  H   H10       1.0  0.11848  0.43496  0.14033  1.0000
  Cu  Cu1       1.0  0.20968  0.33618  0.14704  1.0000
  C   C79       1.0  0.55838  0.14745  0.73252  1.0000
  C   C80       1.0  0.54953  0.12668  0.69871  1.0000
  C   C81       1.0  0.57152  0.13366  0.66522  1.0000
  C   C82       1.0  0.60241  0.16144  0.66545  1.0000
  C   C83       1.0  0.61132  0.18230  0.69934  1.0000
  C   C84       1.0  0.58926  0.17523  0.73280  1.0000
  O   O69       1.0  0.53680  0.14060  0.76538  1.0000
  O   O70       1.0  0.51925  0.09944  0.69843  1.0000
  H   H11       1.0  0.56492  0.11826  0.64023  1.0000
  O   O71       1.0  0.62394  0.16821  0.63248  1.0000
  O   O72       1.0  0.64163  0.20963  0.69978  1.0000
  H   H12       1.0  0.59581  0.19061  0.75783  1.0000
  Cu  Cu2       1.0  0.66382  0.20931  0.64660  1.0000
  C   C85       1.0  0.85251  0.55830  0.23254  1.0000
  C   C86       1.0  0.87330  0.54947  0.19874  1.0000
  C   C87       1.0  0.86630  0.57145  0.16524  1.0000
  C   C88       1.0  0.83850  0.60233  0.16546  1.0000
  C   C89       1.0  0.81763  0.61123  0.19935  1.0000
  C   C90       1.0  0.82471  0.58917  0.23282  1.0000
  O   O73       1.0  0.85938  0.53674  0.26541  1.0000
  O   O74       1.0  0.90056  0.51920  0.19847  1.0000
  H   H13       1.0  0.88172  0.56485  0.14025  1.0000
  O   O75       1.0  0.83172  0.62385  0.13249  1.0000
  O   O76       1.0  0.79027  0.64152  0.19979  1.0000
  H   H14       1.0  0.80932  0.59572  0.25784  1.0000
  Cu  Cu3       1.0  0.79058  0.66370  0.14660  1.0000
  C   C91       1.0  0.45044  0.87326  0.69878  1.0000
  C   C92       1.0  0.44162  0.85250  0.73260  1.0000
  C   C93       1.0  0.41077  0.82470  0.73301  1.0000
  C   C94       1.0  0.38867  0.81759  0.69959  1.0000
  C   C95       1.0  0.39748  0.83839  0.66564  1.0000
  C   C96       1.0  0.42837  0.86618  0.66534  1.0000
  O   O77       1.0  0.48070  0.90053  0.69839  1.0000
  O   O78       1.0  0.46326  0.85944  0.76539  1.0000
  H   H15       1.0  0.40429  0.80937  0.75807  1.0000
  O   O79       1.0  0.35839  0.79025  0.70011  1.0000
  O   O80       1.0  0.37590  0.83156  0.63270  1.0000
  H   H16       1.0  0.43490  0.88154  0.64030  1.0000
  Cu  Cu4       1.0  0.33607  0.79041  0.64704  1.0000
  C   C97       1.0  0.14745  0.55838  0.26748  1.0000
  C   C98       1.0  0.12668  0.54953  0.30129  1.0000
  C   C99       1.0  0.13366  0.57152  0.33478  1.0000
  C   C100      1.0  0.16144  0.60242  0.33455  1.0000
  C   C101      1.0  0.18229  0.61132  0.30066  1.0000
  C   C102      1.0  0.17523  0.58926  0.26720  1.0000
  O   O81       1.0  0.14059  0.53680  0.23462  1.0000
  O   O82       1.0  0.09944  0.51925  0.30157  1.0000
  H   H17       1.0  0.11826  0.56492  0.35977  1.0000
  O   O83       1.0  0.16821  0.62395  0.36752  1.0000
  O   O84       1.0  0.20963  0.64163  0.30022  1.0000
  H   H18       1.0  0.19061  0.59581  0.24217  1.0000
  Cu  Cu5       1.0  0.20931  0.66382  0.35340  1.0000
  C   C103      1.0  0.45051  0.12677  0.80119  1.0000
  C   C104      1.0  0.44169  0.14754  0.76737  1.0000
  C   C105      1.0  0.41086  0.17536  0.76698  1.0000
  C   C106      1.0  0.38876  0.18248  0.80040  1.0000
  C   C107      1.0  0.39757  0.16167  0.83434  1.0000
  C   C108      1.0  0.42844  0.13385  0.83464  1.0000
  O   O85       1.0  0.48076  0.09947  0.80158  1.0000
  O   O86       1.0  0.46332  0.14059  0.73458  1.0000
  H   H19       1.0  0.40438  0.19070  0.74192  1.0000
  O   O87       1.0  0.35849  0.20984  0.79989  1.0000
  O   O88       1.0  0.37599  0.16851  0.86729  1.0000
  H   H20       1.0  0.43496  0.11848  0.85968  1.0000
  Cu  Cu6       1.0  0.33618  0.20969  0.85296  1.0000
  C   C109      1.0  0.87326  0.45044  0.30122  1.0000
  C   C110      1.0  0.85250  0.44162  0.26739  1.0000
  C   C111      1.0  0.82471  0.41077  0.26699  1.0000
  C   C112      1.0  0.81759  0.38866  0.30041  1.0000
  C   C113      1.0  0.83839  0.39748  0.33436  1.0000
  C   C114      1.0  0.86619  0.42837  0.33466  1.0000
  O   O89       1.0  0.90053  0.48070  0.30161  1.0000
  O   O90       1.0  0.85944  0.46325  0.23460  1.0000
  H   H21       1.0  0.80937  0.40429  0.24193  1.0000
  O   O91       1.0  0.79026  0.35838  0.29989  1.0000
  O   O92       1.0  0.83156  0.37589  0.36730  1.0000
  H   H22       1.0  0.88155  0.43489  0.35970  1.0000
  Cu  Cu7       1.0  0.79042  0.33606  0.35296  1.0000
  C   C115      1.0  0.55830  0.85251  0.76746  1.0000
  C   C116      1.0  0.54947  0.87329  0.80126  1.0000
  C   C117      1.0  0.57145  0.86630  0.83476  1.0000
  C   C118      1.0  0.60233  0.83850  0.83454  1.0000
  C   C119      1.0  0.61123  0.81763  0.80065  1.0000
  C   C120      1.0  0.58917  0.82470  0.76718  1.0000
  O   O93       1.0  0.53674  0.85938  0.73459  1.0000
  O   O94       1.0  0.51920  0.90056  0.80153  1.0000
  H   H23       1.0  0.56485  0.88172  0.85975  1.0000
  O   O95       1.0  0.62385  0.83172  0.86751  1.0000
  O   O96       1.0  0.64152  0.79027  0.80022  1.0000
  H   H24       1.0  0.59572  0.80931  0.74216  1.0000
  Cu  Cu8       1.0  0.66370  0.79058  0.85340  1.0000
  C   C121      1.0  0.85251  0.55830  0.76746  1.0000
  C   C122      1.0  0.87329  0.54946  0.80126  1.0000
  C   C123      1.0  0.86630  0.57145  0.83476  1.0000
  C   C124      1.0  0.83850  0.60233  0.83454  1.0000
  C   C125      1.0  0.81763  0.61123  0.80065  1.0000
  C   C126      1.0  0.82470  0.58917  0.76718  1.0000
  O   O97       1.0  0.85938  0.53674  0.73460  1.0000
  O   O98       1.0  0.90056  0.51920  0.80153  1.0000
  H   H25       1.0  0.88171  0.56485  0.85975  1.0000
  O   O99       1.0  0.83172  0.62385  0.86751  1.0000
  O   O100      1.0  0.79027  0.64152  0.80022  1.0000
  H   H26       1.0  0.80931  0.59572  0.74216  1.0000
  Cu  Cu9       1.0  0.79058  0.66370  0.85340  1.0000
  C   C127      1.0  0.45044  0.87326  0.30122  1.0000
  C   C128      1.0  0.44162  0.85250  0.26740  1.0000
  C   C129      1.0  0.41077  0.82471  0.26699  1.0000
  C   C130      1.0  0.38866  0.81759  0.30041  1.0000
  C   C131      1.0  0.39748  0.83839  0.33436  1.0000
  C   C132      1.0  0.42837  0.86619  0.33466  1.0000
  O   O101      1.0  0.48070  0.90053  0.30161  1.0000
  O   O102      1.0  0.46326  0.85944  0.23461  1.0000
  H   H27       1.0  0.40429  0.80938  0.24193  1.0000
  O   O103      1.0  0.35838  0.79026  0.29989  1.0000
  O   O104      1.0  0.37589  0.83156  0.36730  1.0000
  H   H28       1.0  0.43489  0.88155  0.35970  1.0000
  Cu  Cu10      1.0  0.33606  0.79042  0.35296  1.0000
  C   C133      1.0  0.12677  0.45051  0.80119  1.0000
  C   C134      1.0  0.14754  0.44169  0.76737  1.0000
  C   C135      1.0  0.17536  0.41086  0.76698  1.0000
  C   C136      1.0  0.18248  0.38876  0.80040  1.0000
  C   C137      1.0  0.16167  0.39757  0.83434  1.0000
  C   C138      1.0  0.13385  0.42844  0.83463  1.0000
  O   O105      1.0  0.09947  0.48076  0.80157  1.0000
  O   O106      1.0  0.14059  0.46332  0.73457  1.0000
  H   H29       1.0  0.19070  0.40438  0.74191  1.0000
  O   O107      1.0  0.20984  0.35849  0.79989  1.0000
  O   O108      1.0  0.16851  0.37599  0.86729  1.0000
  H   H30       1.0  0.11848  0.43496  0.85967  1.0000
  Cu  Cu11      1.0  0.20969  0.33618  0.85296  1.0000
  C   C139      1.0  0.55838  0.14745  0.26748  1.0000
  C   C140      1.0  0.54953  0.12668  0.30129  1.0000
  C   C141      1.0  0.57152  0.13366  0.33478  1.0000
  C   C142      1.0  0.60242  0.16144  0.33455  1.0000
  C   C143      1.0  0.61132  0.18229  0.30066  1.0000
  C   C144      1.0  0.58926  0.17523  0.26720  1.0000
  O   O109      1.0  0.53680  0.14060  0.23462  1.0000
  O   O110      1.0  0.51925  0.09944  0.30156  1.0000
  H   H31       1.0  0.56492  0.11826  0.35977  1.0000
  O   O111      1.0  0.62395  0.16821  0.36752  1.0000
  O   O112      1.0  0.64163  0.20963  0.30022  1.0000
  H   H32       1.0  0.59581  0.19061  0.24217  1.0000
  Cu  Cu12      1.0  0.66382  0.20931  0.35340  1.0000
  C   C145      1.0  0.87326  0.45044  0.69878  1.0000
  C   C146      1.0  0.85250  0.44162  0.73261  1.0000
  C   C147      1.0  0.82470  0.41077  0.73301  1.0000
  C   C148      1.0  0.81759  0.38867  0.69959  1.0000
  C   C149      1.0  0.83839  0.39748  0.66564  1.0000
  C   C150      1.0  0.86618  0.42837  0.66534  1.0000
  O   O113      1.0  0.90053  0.48070  0.69839  1.0000
  O   O114      1.0  0.85944  0.46325  0.76540  1.0000
  H   H33       1.0  0.80937  0.40429  0.75807  1.0000
  O   O115      1.0  0.79025  0.35839  0.70011  1.0000
  O   O116      1.0  0.83156  0.37590  0.63270  1.0000
  H   H34       1.0  0.88154  0.43490  0.64030  1.0000
  Cu  Cu13      1.0  0.79041  0.33607  0.64704  1.0000
  C   C151      1.0  0.55830  0.85251  0.23254  1.0000
  C   C152      1.0  0.54947  0.87330  0.19874  1.0000
  C   C153      1.0  0.57145  0.86630  0.16525  1.0000
  C   C154      1.0  0.60233  0.83850  0.16547  1.0000
  C   C155      1.0  0.61123  0.81763  0.19935  1.0000
  C   C156      1.0  0.58917  0.82471  0.23282  1.0000
  O   O117      1.0  0.53674  0.85938  0.26541  1.0000
  O   O118      1.0  0.51920  0.90056  0.19847  1.0000
  H   H35       1.0  0.56485  0.88172  0.14026  1.0000
  O   O119      1.0  0.62385  0.83172  0.13249  1.0000
  O   O120      1.0  0.64152  0.79028  0.19979  1.0000
  H   H36       1.0  0.59572  0.80932  0.25784  1.0000
  Cu  Cu14      1.0  0.66370  0.79058  0.14660  1.0000
  C   C157      1.0  0.14745  0.55838  0.73251  1.0000
  C   C158      1.0  0.12668  0.54953  0.69871  1.0000
  C   C159      1.0  0.13366  0.57152  0.66522  1.0000
  C   C160      1.0  0.16144  0.60241  0.66544  1.0000
  C   C161      1.0  0.18230  0.61132  0.69934  1.0000
  C   C162      1.0  0.17523  0.58926  0.73280  1.0000
  O   O121      1.0  0.14059  0.53680  0.76538  1.0000
  O   O122      1.0  0.09944  0.51925  0.69843  1.0000
  H   H37       1.0  0.11826  0.56492  0.64022  1.0000
  O   O123      1.0  0.16821  0.62394  0.63247  1.0000
  O   O124      1.0  0.20963  0.64163  0.69978  1.0000
  H   H38       1.0  0.19061  0.59581  0.75782  1.0000
  Cu  Cu15      1.0  0.20931  0.66382  0.64660  1.0000
  C   C163      1.0  0.45050  0.12677  0.19881  1.0000
  C   C164      1.0  0.44169  0.14754  0.23263  1.0000
  C   C165      1.0  0.41085  0.17536  0.23302  1.0000
  C   C166      1.0  0.38876  0.18248  0.19960  1.0000
  C   C167      1.0  0.39757  0.16167  0.16566  1.0000
  C   C168      1.0  0.42844  0.13385  0.16536  1.0000
  O   O125      1.0  0.48075  0.09947  0.19842  1.0000
  O   O126      1.0  0.46332  0.14059  0.26542  1.0000
  H   H39       1.0  0.40438  0.19070  0.25808  1.0000
  O   O127      1.0  0.35849  0.20984  0.20011  1.0000
  O   O128      1.0  0.37599  0.16851  0.13271  1.0000
  H   H40       1.0  0.43496  0.11848  0.14032  1.0000
  Cu  Cu16      1.0  0.33618  0.20968  0.14704  1.0000
  Cu  Cu17      1.0  0.25852  0.25852  0.00010  1.0000
  Cu  Cu18      1.0  0.74163  0.25836  0.50000  1.0000
  Cu  Cu19      1.0  0.74148  0.74148  0.00010  1.0000
  Cu  Cu20      1.0  0.25836  0.74163  0.50000  1.0000
