data_image0
_chemical_formula_structural       Fe8C6O6C6O6C6O6C6O6Cu2C6HO2HO2C6HO2HO2C6HO2HO2C6HO2HO2C6HO2HO2C6HO2HO2C6HO2HO2C6HO2HO2C6O2HO2HCuC6O2HO2HCuC6O2HO2HCuC6O2HO2HCuC6O2HO2HCuC6O2HO2HCuC6O2HO2HCuC6O2HO2HCu
_chemical_formula_sum              "Fe8 C120 O88 Cu10 H32"
_cell_length_a       49.2339
_cell_length_b       25.9788
_cell_length_c       20.9186
_cell_angle_alpha    89.9997
_cell_angle_beta     89.9999
_cell_angle_gamma    89.9999

_space_group_name_H-M_alt    "P 1"
_space_group_IT_number       1

loop_
  _space_group_symop_operation_xyz
  'x, y, z'

loop_
  _atom_site_type_symbol
  _atom_site_label
  _atom_site_symmetry_multiplicity
  _atom_site_fract_x
  _atom_site_fract_y
  _atom_site_fract_z
  _atom_site_occupancy
  Fe  Fe1       1.0  0.30165  0.10793  0.11850  1.0000
  Fe  Fe2       1.0  0.19836  0.89207  0.61850  1.0000
  Fe  Fe3       1.0  0.30165  0.89207  0.88150  1.0000
  Fe  Fe4       1.0  0.19836  0.10794  0.38151  1.0000
  Fe  Fe5       1.0  0.69835  0.89207  0.88151  1.0000
  Fe  Fe6       1.0  0.80165  0.10793  0.38151  1.0000
  Fe  Fe7       1.0  0.69835  0.10794  0.11850  1.0000
  Fe  Fe8       1.0  0.80164  0.89206  0.61850  1.0000
  C   C1        1.0  0.42481  0.55236  0.98427  1.0000
  C   C2        1.0  0.44943  0.52618  0.99219  1.0000
  C   C3        1.0  0.44944  0.47382  0.00801  1.0000
  C   C4        1.0  0.42481  0.44764  0.01593  1.0000
  C   C5        1.0  0.40018  0.47382  0.00801  1.0000
  C   C6        1.0  0.40018  0.52618  0.99219  1.0000
  O   O1        1.0  0.42481  0.59948  0.97003  1.0000
  O   O2        1.0  0.47160  0.54974  0.98507  1.0000
  O   O3        1.0  0.47160  0.45025  0.01514  1.0000
  O   O4        1.0  0.42481  0.40051  0.03017  1.0000
  O   O5        1.0  0.37802  0.45025  0.01513  1.0000
  O   O6        1.0  0.37802  0.54974  0.98506  1.0000
  C   C7        1.0  0.09982  0.47382  0.49209  1.0000
  C   C8        1.0  0.09982  0.52618  0.50791  1.0000
  C   C9        1.0  0.07519  0.55236  0.51583  1.0000
  C   C10       1.0  0.05057  0.52618  0.50792  1.0000
  C   C11       1.0  0.05057  0.47382  0.49209  1.0000
  C   C12       1.0  0.07519  0.44764  0.48417  1.0000
  O   O7        1.0  0.12198  0.45026  0.48496  1.0000
  O   O8        1.0  0.12198  0.54975  0.51503  1.0000
  O   O9        1.0  0.07519  0.59949  0.53007  1.0000
  O   O10       1.0  0.02840  0.54975  0.51504  1.0000
  O   O11       1.0  0.02840  0.45026  0.48497  1.0000
  O   O12       1.0  0.07519  0.40052  0.46993  1.0000
  C   C13       1.0  0.59982  0.47382  0.00801  1.0000
  C   C14       1.0  0.59982  0.52619  0.99219  1.0000
  C   C15       1.0  0.57519  0.55237  0.98427  1.0000
  C   C16       1.0  0.55057  0.52619  0.99219  1.0000
  C   C17       1.0  0.55057  0.47382  0.00801  1.0000
  C   C18       1.0  0.57519  0.44764  0.01593  1.0000
  O   O13       1.0  0.62198  0.45026  0.01513  1.0000
  O   O14       1.0  0.62198  0.54975  0.98507  1.0000
  O   O15       1.0  0.57519  0.59949  0.97003  1.0000
  O   O16       1.0  0.52840  0.54975  0.98506  1.0000
  O   O17       1.0  0.52840  0.45026  0.01513  1.0000
  O   O18       1.0  0.57519  0.40052  0.03017  1.0000
  C   C19       1.0  0.92481  0.55236  0.51584  1.0000
  C   C20       1.0  0.94943  0.52618  0.50793  1.0000
  C   C21       1.0  0.94943  0.47381  0.49211  1.0000
  C   C22       1.0  0.92481  0.44763  0.48419  1.0000
  C   C23       1.0  0.90018  0.47382  0.49211  1.0000
  C   C24       1.0  0.90018  0.52618  0.50793  1.0000
  O   O19       1.0  0.92481  0.59948  0.53009  1.0000
  O   O20       1.0  0.97160  0.54974  0.51505  1.0000
  O   O21       1.0  0.97160  0.45025  0.48498  1.0000
  O   O22       1.0  0.92481  0.40051  0.46995  1.0000
  O   O23       1.0  0.87802  0.45025  0.48499  1.0000
  O   O24       1.0  0.87802  0.54974  0.51505  1.0000
  Cu  Cu1       1.0  0.50000  0.50000  0.00010  1.0000
  Cu  Cu2       1.0  0.99990  0.50000  0.50001  1.0000
  C   C25       1.0  0.23070  0.09344  0.20340  1.0000
  C   C26       1.0  0.22272  0.09973  0.26716  1.0000
  C   C27       1.0  0.24202  0.11231  0.31376  1.0000
  C   C28       1.0  0.26930  0.11860  0.29661  1.0000
  C   C29       1.0  0.27729  0.11231  0.23285  1.0000
  C   C30       1.0  0.25799  0.09973  0.18625  1.0000
  H   H1        1.0  0.21623  0.08400  0.16845  1.0000
  O   O25       1.0  0.19816  0.09407  0.28259  1.0000
  O   O26       1.0  0.23483  0.11797  0.37114  1.0000
  H   H2        1.0  0.28378  0.12804  0.33156  1.0000
  O   O27       1.0  0.30184  0.11797  0.21741  1.0000
  O   O28       1.0  0.26518  0.09406  0.12887  1.0000
  C   C31       1.0  0.23024  0.89902  0.79772  1.0000
  C   C32       1.0  0.25776  0.89650  0.81432  1.0000
  C   C33       1.0  0.27752  0.89146  0.76660  1.0000
  C   C34       1.0  0.26976  0.88894  0.70229  1.0000
  C   C35       1.0  0.24225  0.89146  0.68569  1.0000
  C   C36       1.0  0.22249  0.89650  0.73341  1.0000
  H   H3        1.0  0.21542  0.90280  0.83351  1.0000
  O   O29       1.0  0.26474  0.89877  0.87220  1.0000
  O   O30       1.0  0.30228  0.88919  0.78153  1.0000
  H   H4        1.0  0.28458  0.88516  0.66650  1.0000
  O   O31       1.0  0.23527  0.88919  0.62781  1.0000
  O   O32       1.0  0.19772  0.89877  0.71847  1.0000
  C   C37       1.0  0.73070  0.90656  0.70340  1.0000
  C   C38       1.0  0.72271  0.90027  0.76716  1.0000
  C   C39       1.0  0.74201  0.88769  0.81376  1.0000
  C   C40       1.0  0.76929  0.88140  0.79661  1.0000
  C   C41       1.0  0.77728  0.88769  0.73285  1.0000
  C   C42       1.0  0.75798  0.90027  0.68625  1.0000
  H   H5        1.0  0.71622  0.91600  0.66845  1.0000
  O   O33       1.0  0.69815  0.90594  0.78260  1.0000
  O   O34       1.0  0.73482  0.88203  0.87114  1.0000
  H   H6        1.0  0.78377  0.87196  0.83156  1.0000
  O   O35       1.0  0.80184  0.88202  0.71741  1.0000
  O   O36       1.0  0.76517  0.90593  0.62887  1.0000
  C   C43       1.0  0.73070  0.09344  0.29661  1.0000
  C   C44       1.0  0.72272  0.09973  0.23285  1.0000
  C   C45       1.0  0.74201  0.11231  0.18625  1.0000
  C   C46       1.0  0.76930  0.11860  0.20340  1.0000
  C   C47       1.0  0.77728  0.11231  0.26716  1.0000
  C   C48       1.0  0.75799  0.09973  0.31376  1.0000
  H   H7        1.0  0.71623  0.08400  0.33156  1.0000
  O   O37       1.0  0.69816  0.09407  0.21741  1.0000
  O   O38       1.0  0.73483  0.11797  0.12887  1.0000
  H   H8        1.0  0.78377  0.12804  0.16845  1.0000
  O   O39       1.0  0.80184  0.11797  0.28260  1.0000
  O   O40       1.0  0.76517  0.09407  0.37114  1.0000
  C   C49       1.0  0.29741  0.03625  0.95272  1.0000
  C   C50       1.0  0.30054  0.98433  0.93640  1.0000
  C   C51       1.0  0.30679  0.94807  0.98368  1.0000
  C   C52       1.0  0.30992  0.96375  0.04728  1.0000
  C   C53       1.0  0.30679  0.01567  0.06361  1.0000
  C   C54       1.0  0.30054  0.05192  0.01633  1.0000
  H   H9        1.0  0.29271  0.06344  0.91726  1.0000
  O   O41       1.0  0.29772  0.97022  0.87915  1.0000
  O   O42       1.0  0.30961  0.90134  0.96898  1.0000
  H   H10       1.0  0.31461  0.93656  0.08274  1.0000
  O   O43       1.0  0.30961  0.02978  0.12086  1.0000
  O   O44       1.0  0.29772  0.09866  0.03102  1.0000
  C   C55       1.0  0.19008  0.03625  0.54728  1.0000
  C   C56       1.0  0.19321  0.05193  0.48368  1.0000
  C   C57       1.0  0.19947  0.01568  0.43640  1.0000
  C   C58       1.0  0.20260  0.96375  0.45272  1.0000
  C   C59       1.0  0.19947  0.94808  0.51633  1.0000
  C   C60       1.0  0.19321  0.98433  0.56361  1.0000
  H   H11       1.0  0.18539  0.06344  0.58275  1.0000
  O   O45       1.0  0.19040  0.09866  0.46898  1.0000
  O   O46       1.0  0.20229  0.02978  0.37915  1.0000
  H   H12       1.0  0.20729  0.93656  0.41726  1.0000
  O   O47       1.0  0.20228  0.90134  0.53102  1.0000
  O   O48       1.0  0.19040  0.97022  0.62086  1.0000
  C   C61       1.0  0.69008  0.96375  0.04729  1.0000
  C   C62       1.0  0.69321  0.94808  0.98368  1.0000
  C   C63       1.0  0.69946  0.98433  0.93640  1.0000
  C   C64       1.0  0.70259  0.03625  0.95272  1.0000
  C   C65       1.0  0.69947  0.05193  0.01633  1.0000
  C   C66       1.0  0.69321  0.01568  0.06361  1.0000
  H   H13       1.0  0.68539  0.93657  0.08275  1.0000
  O   O49       1.0  0.69039  0.90135  0.96899  1.0000
  O   O50       1.0  0.70228  0.97022  0.87915  1.0000
  H   H14       1.0  0.70729  0.06344  0.91726  1.0000
  O   O51       1.0  0.70228  0.09866  0.03102  1.0000
  O   O52       1.0  0.69039  0.02979  0.12086  1.0000
  C   C67       1.0  0.79740  0.96375  0.45272  1.0000
  C   C68       1.0  0.80053  0.01567  0.43640  1.0000
  C   C69       1.0  0.80679  0.05192  0.48368  1.0000
  C   C70       1.0  0.80992  0.03625  0.54729  1.0000
  C   C71       1.0  0.80679  0.98432  0.56361  1.0000
  C   C72       1.0  0.80053  0.94807  0.51633  1.0000
  H   H15       1.0  0.79271  0.93656  0.41726  1.0000
  O   O53       1.0  0.79772  0.02978  0.37915  1.0000
  O   O54       1.0  0.80960  0.09865  0.46899  1.0000
  H   H16       1.0  0.81461  0.06343  0.58275  1.0000
  O   O55       1.0  0.80960  0.97021  0.62086  1.0000
  O   O56       1.0  0.79771  0.90134  0.53102  1.0000
  C   C73       1.0  0.31716  0.21068  0.09427  1.0000
  C   C74       1.0  0.34406  0.18054  0.09263  1.0000
  C   C75       1.0  0.37089  0.20872  0.07844  1.0000
  C   C76       1.0  0.37089  0.26711  0.06587  1.0000
  C   C77       1.0  0.34392  0.29740  0.06750  1.0000
  C   C78       1.0  0.31712  0.26907  0.08171  1.0000
  O   O57       1.0  0.29084  0.18304  0.10819  1.0000
  O   O58       1.0  0.34410  0.12328  0.10494  1.0000
  H   H17       1.0  0.39077  0.18632  0.07725  1.0000
  O   O59       1.0  0.39729  0.29463  0.05195  1.0000
  O   O60       1.0  0.34375  0.35478  0.05520  1.0000
  H   H18       1.0  0.29721  0.29140  0.08293  1.0000
  Cu  Cu3       1.0  0.38627  0.37550  0.03787  1.0000
  C   C79       1.0  0.15601  0.81936  0.59263  1.0000
  C   C80       1.0  0.18292  0.78925  0.59428  1.0000
  C   C81       1.0  0.18306  0.73087  0.58175  1.0000
  C   C82       1.0  0.15629  0.70246  0.56754  1.0000
  C   C83       1.0  0.12928  0.73261  0.56586  1.0000
  C   C84       1.0  0.12922  0.79102  0.57842  1.0000
  O   O61       1.0  0.15588  0.87663  0.60492  1.0000
  O   O62       1.0  0.20919  0.81704  0.60821  1.0000
  H   H19       1.0  0.20300  0.70867  0.58300  1.0000
  O   O63       1.0  0.15652  0.64510  0.55526  1.0000
  O   O64       1.0  0.10289  0.70498  0.55192  1.0000
  H   H20       1.0  0.10930  0.81330  0.57719  1.0000
  Cu  Cu4       1.0  0.11409  0.62410  0.53790  1.0000
  C   C85       1.0  0.31716  0.78932  0.90573  1.0000
  C   C86       1.0  0.34406  0.81946  0.90738  1.0000
  C   C87       1.0  0.37089  0.79128  0.92156  1.0000
  C   C88       1.0  0.37089  0.73288  0.93413  1.0000
  C   C89       1.0  0.34392  0.70259  0.93250  1.0000
  C   C90       1.0  0.31711  0.73092  0.91829  1.0000
  O   O65       1.0  0.29084  0.81696  0.89182  1.0000
  O   O66       1.0  0.34410  0.87671  0.89506  1.0000
  H   H21       1.0  0.39077  0.81368  0.92275  1.0000
  O   O67       1.0  0.39729  0.70537  0.94805  1.0000
  O   O68       1.0  0.34374  0.64521  0.94480  1.0000
  H   H22       1.0  0.29720  0.70860  0.91708  1.0000
  Cu  Cu5       1.0  0.38627  0.62450  0.96213  1.0000
  C   C91       1.0  0.15602  0.18064  0.40738  1.0000
  C   C92       1.0  0.18292  0.21075  0.40572  1.0000
  C   C93       1.0  0.18306  0.26913  0.41825  1.0000
  C   C94       1.0  0.15629  0.29754  0.43247  1.0000
  C   C95       1.0  0.12928  0.26739  0.43414  1.0000
  C   C96       1.0  0.12922  0.20898  0.42159  1.0000
  O   O69       1.0  0.15588  0.12337  0.39509  1.0000
  O   O70       1.0  0.20919  0.18297  0.39180  1.0000
  H   H23       1.0  0.20300  0.29133  0.41700  1.0000
  O   O71       1.0  0.15653  0.35490  0.44475  1.0000
  O   O72       1.0  0.10289  0.29502  0.44808  1.0000
  H   H24       1.0  0.10930  0.18670  0.42281  1.0000
  Cu  Cu6       1.0  0.11409  0.37590  0.46210  1.0000
  C   C97       1.0  0.65601  0.81936  0.90739  1.0000
  C   C98       1.0  0.68292  0.78925  0.90573  1.0000
  C   C99       1.0  0.68306  0.73088  0.91826  1.0000
  C   C100      1.0  0.65629  0.70246  0.93248  1.0000
  C   C101      1.0  0.62928  0.73261  0.93416  1.0000
  C   C102      1.0  0.62922  0.79102  0.92160  1.0000
  O   O73       1.0  0.65587  0.87664  0.89510  1.0000
  O   O74       1.0  0.70919  0.81704  0.89180  1.0000
  H   H25       1.0  0.70300  0.70867  0.91701  1.0000
  O   O75       1.0  0.65652  0.64511  0.94476  1.0000
  O   O76       1.0  0.60289  0.70498  0.94809  1.0000
  H   H26       1.0  0.60930  0.81330  0.92283  1.0000
  Cu  Cu7       1.0  0.61408  0.62411  0.96212  1.0000
  C   C103      1.0  0.81723  0.21084  0.40456  1.0000
  C   C104      1.0  0.84398  0.18038  0.40857  1.0000
  C   C105      1.0  0.87074  0.20840  0.42394  1.0000
  C   C106      1.0  0.87081  0.26695  0.43534  1.0000
  C   C107      1.0  0.84399  0.29756  0.43134  1.0000
  C   C108      1.0  0.81725  0.26939  0.41595  1.0000
  O   O77       1.0  0.79098  0.18335  0.38949  1.0000
  O   O78       1.0  0.84396  0.12297  0.39741  1.0000
  H   H27       1.0  0.89052  0.18577  0.42688  1.0000
  O   O79       1.0  0.89715  0.29431  0.45043  1.0000
  O   O80       1.0  0.84388  0.35509  0.44247  1.0000
  H   H28       1.0  0.79745  0.29195  0.41298  1.0000
  Cu  Cu8       1.0  0.88627  0.37550  0.46216  1.0000
  C   C109      1.0  0.65601  0.18064  0.09263  1.0000
  C   C110      1.0  0.68292  0.21075  0.09428  1.0000
  C   C111      1.0  0.68306  0.26913  0.08176  1.0000
  C   C112      1.0  0.65629  0.29755  0.06754  1.0000
  C   C113      1.0  0.62928  0.26739  0.06587  1.0000
  C   C114      1.0  0.62922  0.20898  0.07843  1.0000
  O   O81       1.0  0.65588  0.12337  0.10492  1.0000
  O   O82       1.0  0.70919  0.18296  0.10821  1.0000
  H   H29       1.0  0.70300  0.29133  0.08301  1.0000
  O   O83       1.0  0.65652  0.35490  0.05527  1.0000
  O   O84       1.0  0.60289  0.29503  0.05194  1.0000
  H   H30       1.0  0.60930  0.18670  0.07720  1.0000
  Cu  Cu9       1.0  0.61409  0.37590  0.03791  1.0000
  C   C115      1.0  0.81715  0.78931  0.59428  1.0000
  C   C116      1.0  0.84405  0.81946  0.59263  1.0000
  C   C117      1.0  0.87088  0.79128  0.57845  1.0000
  C   C118      1.0  0.87088  0.73288  0.56588  1.0000
  C   C119      1.0  0.84391  0.70259  0.56751  1.0000
  C   C120      1.0  0.81711  0.73092  0.58172  1.0000
  O   O85       1.0  0.79083  0.81696  0.60819  1.0000
  O   O86       1.0  0.84409  0.87671  0.60494  1.0000
  H   H31       1.0  0.89076  0.81368  0.57726  1.0000
  O   O87       1.0  0.89729  0.70537  0.55197  1.0000
  O   O88       1.0  0.84374  0.64521  0.55521  1.0000
  H   H32       1.0  0.79720  0.70859  0.58293  1.0000
  Cu  Cu10      1.0  0.88626  0.62449  0.53789  1.0000
