data_image0
_chemical_formula_structural       Fe8C6O6C6O6C6O6C6O6C6O6C6O6C6O6C6O6C6O2HO2HCuC6O2HO2HCuC6O2HO2HCuC6O2HO2HCuC6O2HO2HCuC6O2HO2HCuC6O2HO2HCuC6O2HO2HCuC6O2HO2HCuC6O2HO2HCuC6O2HO2HCuC6O2HO2HCuC6O2HO2HCuC6O2HO2HCuC6O2HO2HCuC6O2HO2HCu5C6HO2HO2C6HO2HO2C6HO2HO2C6HO2HO2
_chemical_formula_sum              "Fe8 C168 O128 H40 Cu20"
_cell_length_a       37.1105
_cell_length_b       37.1104
_cell_length_c       37.5548
_cell_angle_alpha    89.9927
_cell_angle_beta     90.0073
_cell_angle_gamma    90.0011

_space_group_name_H-M_alt    "P 1"
_space_group_IT_number       1

loop_
  _space_group_symop_operation_xyz
  'x, y, z'

loop_
  _atom_site_type_symbol
  _atom_site_label
  _atom_site_symmetry_multiplicity
  _atom_site_fract_x
  _atom_site_fract_y
  _atom_site_fract_z
  _atom_site_occupancy
  Fe  Fe1       1.0  0.14948  0.24995  0.24998  1.0000
  Fe  Fe2       1.0  0.24994  0.14948  0.75004  1.0000
  Fe  Fe3       1.0  0.35060  0.24996  0.25001  1.0000
  Fe  Fe4       1.0  0.24998  0.35060  0.75001  1.0000
  Fe  Fe5       1.0  0.85052  0.75004  0.75001  1.0000
  Fe  Fe6       1.0  0.75004  0.85052  0.24996  1.0000
  Fe  Fe7       1.0  0.64940  0.75004  0.74999  1.0000
  Fe  Fe8       1.0  0.75004  0.64940  0.24999  1.0000
  C   C1        1.0  0.50624  0.03288  0.12813  1.0000
  C   C2        1.0  0.53292  0.00621  0.12813  1.0000
  C   C3        1.0  0.54048  0.98710  0.09687  1.0000
  C   C4        1.0  0.52136  0.99467  0.06561  1.0000
  C   C5        1.0  0.49468  0.02135  0.06561  1.0000
  C   C6        1.0  0.48713  0.04045  0.09687  1.0000
  O   O1        1.0  0.49944  0.05008  0.15626  1.0000
  O   O2        1.0  0.55013  0.99990  0.15626  1.0000
  O   O3        1.0  0.56449  0.96309  0.09687  1.0000
  O   O4        1.0  0.52816  0.97748  0.03748  1.0000
  O   O5        1.0  0.47748  0.02816  0.03748  1.0000
  O   O6        1.0  0.46312  0.06446  0.09687  1.0000
  C   C7        1.0  0.51287  0.54049  0.59687  1.0000
  C   C8        1.0  0.50531  0.52138  0.56562  1.0000
  C   C9        1.0  0.47863  0.49470  0.56562  1.0000
  C   C10       1.0  0.45952  0.48714  0.59687  1.0000
  C   C11       1.0  0.46708  0.50626  0.62813  1.0000
  C   C12       1.0  0.49375  0.53294  0.62813  1.0000
  O   O7        1.0  0.53688  0.56450  0.59687  1.0000
  O   O8        1.0  0.52251  0.52818  0.53748  1.0000
  O   O9        1.0  0.47183  0.47749  0.53749  1.0000
  O   O10       1.0  0.43551  0.46313  0.59687  1.0000
  O   O11       1.0  0.44987  0.49946  0.65626  1.0000
  O   O12       1.0  0.50056  0.55014  0.65626  1.0000
  C   C13       1.0  0.01290  0.45952  0.09687  1.0000
  C   C14       1.0  0.00533  0.47864  0.06561  1.0000
  C   C15       1.0  0.97866  0.50531  0.06561  1.0000
  C   C16       1.0  0.95955  0.51287  0.09687  1.0000
  C   C17       1.0  0.96712  0.49375  0.12813  1.0000
  C   C18       1.0  0.99379  0.46708  0.12813  1.0000
  O   O13       1.0  0.03691  0.43551  0.09687  1.0000
  O   O14       1.0  0.02253  0.47183  0.03747  1.0000
  O   O15       1.0  0.97185  0.52252  0.03747  1.0000
  O   O16       1.0  0.93554  0.53688  0.09687  1.0000
  O   O17       1.0  0.94992  0.50056  0.15626  1.0000
  O   O18       1.0  0.00010  0.44987  0.15626  1.0000
  C   C19       1.0  0.00613  0.96720  0.62817  1.0000
  C   C20       1.0  0.03280  0.99387  0.62817  1.0000
  C   C21       1.0  0.04038  0.01297  0.59690  1.0000
  C   C22       1.0  0.02128  0.00540  0.56564  1.0000
  C   C23       1.0  0.99460  0.97872  0.56564  1.0000
  C   C24       1.0  0.98703  0.95962  0.59690  1.0000
  O   O19       1.0  0.99990  0.95000  0.65630  1.0000
  O   O20       1.0  0.04999  0.00010  0.65631  1.0000
  O   O21       1.0  0.06439  0.03698  0.59690  1.0000
  O   O22       1.0  0.02810  0.02259  0.53750  1.0000
  O   O23       1.0  0.97741  0.97190  0.53750  1.0000
  O   O24       1.0  0.96302  0.93561  0.59690  1.0000
  C   C25       1.0  0.50626  0.46708  0.37187  1.0000
  C   C26       1.0  0.53293  0.49375  0.37187  1.0000
  C   C27       1.0  0.54049  0.51287  0.40313  1.0000
  C   C28       1.0  0.52138  0.50531  0.43438  1.0000
  C   C29       1.0  0.49470  0.47863  0.43439  1.0000
  C   C30       1.0  0.48714  0.45952  0.40313  1.0000
  O   O25       1.0  0.49945  0.44987  0.34374  1.0000
  O   O26       1.0  0.55014  0.50055  0.34374  1.0000
  O   O27       1.0  0.56450  0.53688  0.40313  1.0000
  O   O28       1.0  0.52818  0.52252  0.46252  1.0000
  O   O29       1.0  0.47750  0.47183  0.46252  1.0000
  O   O30       1.0  0.46313  0.43551  0.40313  1.0000
  C   C31       1.0  0.00621  0.53292  0.87187  1.0000
  C   C32       1.0  0.03289  0.50624  0.87187  1.0000
  C   C33       1.0  0.04045  0.48712  0.90313  1.0000
  C   C34       1.0  0.02135  0.49468  0.93439  1.0000
  C   C35       1.0  0.99467  0.52136  0.93439  1.0000
  C   C36       1.0  0.98710  0.54047  0.90313  1.0000
  O   O31       1.0  0.99990  0.55012  0.84374  1.0000
  O   O32       1.0  0.05008  0.49944  0.84374  1.0000
  O   O33       1.0  0.06446  0.46312  0.90313  1.0000
  O   O34       1.0  0.02816  0.47748  0.96252  1.0000
  O   O35       1.0  0.97747  0.52816  0.96252  1.0000
  O   O36       1.0  0.96309  0.56448  0.90313  1.0000
  C   C37       1.0  0.01297  0.04037  0.40310  1.0000
  C   C38       1.0  0.00539  0.02127  0.43437  1.0000
  C   C39       1.0  0.97872  0.99460  0.43436  1.0000
  C   C40       1.0  0.95962  0.98702  0.40310  1.0000
  C   C41       1.0  0.96719  0.00612  0.37183  1.0000
  C   C42       1.0  0.99387  0.03280  0.37183  1.0000
  O   O37       1.0  0.03698  0.06438  0.40310  1.0000
  O   O38       1.0  0.02258  0.02809  0.46250  1.0000
  O   O39       1.0  0.97190  0.97741  0.46250  1.0000
  O   O40       1.0  0.93561  0.96301  0.40310  1.0000
  O   O41       1.0  0.95000  0.99990  0.34370  1.0000
  O   O42       1.0  0.00010  0.04999  0.34370  1.0000
  C   C43       1.0  0.51287  0.95955  0.90313  1.0000
  C   C44       1.0  0.50531  0.97866  0.93439  1.0000
  C   C45       1.0  0.47864  0.00533  0.93440  1.0000
  C   C46       1.0  0.45952  0.01290  0.90314  1.0000
  C   C47       1.0  0.46708  0.99379  0.87188  1.0000
  C   C48       1.0  0.49375  0.96712  0.87187  1.0000
  O   O43       1.0  0.53688  0.93554  0.90313  1.0000
  O   O44       1.0  0.52252  0.97185  0.96253  1.0000
  O   O45       1.0  0.47183  0.02253  0.96253  1.0000
  O   O46       1.0  0.43551  0.03691  0.90314  1.0000
  O   O47       1.0  0.44987  0.00010  0.84374  1.0000
  O   O48       1.0  0.50055  0.94992  0.84374  1.0000
  C   C49       1.0  0.12316  0.20056  0.30171  1.0000
  C   C50       1.0  0.10243  0.19203  0.26723  1.0000
  C   C51       1.0  0.07434  0.16153  0.26670  1.0000
  C   C52       1.0  0.06689  0.13949  0.30065  1.0000
  C   C53       1.0  0.08765  0.14802  0.33526  1.0000
  C   C54       1.0  0.11575  0.17856  0.33568  1.0000
  O   O49       1.0  0.15073  0.23049  0.30223  1.0000
  O   O50       1.0  0.10970  0.21360  0.23392  1.0000
  H   H1        1.0  0.05903  0.15526  0.24115  1.0000
  O   O51       1.0  0.03926  0.10955  0.30000  1.0000
  O   O52       1.0  0.08049  0.12650  0.36872  1.0000
  H   H2        1.0  0.13109  0.18487  0.36121  1.0000
  Cu  Cu1       1.0  0.03901  0.08720  0.35396  1.0000
  C   C55       1.0  0.29933  0.12313  0.80176  1.0000
  C   C56       1.0  0.30786  0.10242  0.76728  1.0000
  C   C57       1.0  0.33835  0.07431  0.76675  1.0000
  C   C58       1.0  0.36039  0.06685  0.80070  1.0000
  C   C59       1.0  0.35186  0.08761  0.83531  1.0000
  C   C60       1.0  0.32133  0.11571  0.83573  1.0000
  O   O53       1.0  0.26942  0.15071  0.80228  1.0000
  O   O54       1.0  0.28629  0.10970  0.73397  1.0000
  H   H3        1.0  0.34461  0.05902  0.74119  1.0000
  O   O55       1.0  0.39032  0.03921  0.80005  1.0000
  O   O56       1.0  0.37339  0.08043  0.86877  1.0000
  H   H4        1.0  0.31503  0.13104  0.86126  1.0000
  Cu  Cu2       1.0  0.41268  0.03895  0.85401  1.0000
  C   C61       1.0  0.39760  0.30787  0.26736  1.0000
  C   C62       1.0  0.37687  0.29931  0.30183  1.0000
  C   C63       1.0  0.38420  0.32122  0.33585  1.0000
  C   C64       1.0  0.41228  0.35177  0.33550  1.0000
  C   C65       1.0  0.43310  0.36039  0.30094  1.0000
  C   C66       1.0  0.42569  0.33840  0.26695  1.0000
  O   O57       1.0  0.39041  0.28637  0.23398  1.0000
  O   O58       1.0  0.34933  0.26937  0.30223  1.0000
  H   H5        1.0  0.36882  0.31483  0.36133  1.0000
  O   O59       1.0  0.41939  0.37323  0.36899  1.0000
  O   O60       1.0  0.46073  0.39036  0.30038  1.0000
  H   H6        1.0  0.44104  0.34475  0.24144  1.0000
  Cu  Cu3       1.0  0.46084  0.41257  0.35445  1.0000
  C   C67       1.0  0.19208  0.39760  0.76736  1.0000
  C   C68       1.0  0.20064  0.37687  0.80183  1.0000
  C   C69       1.0  0.17872  0.38419  0.83585  1.0000
  C   C70       1.0  0.14818  0.41227  0.83550  1.0000
  C   C71       1.0  0.13956  0.43310  0.80094  1.0000
  C   C72       1.0  0.16155  0.42569  0.76695  1.0000
  O   O61       1.0  0.21358  0.39041  0.73398  1.0000
  O   O62       1.0  0.23057  0.34932  0.80223  1.0000
  H   H7        1.0  0.18511  0.36881  0.86133  1.0000
  O   O63       1.0  0.12673  0.41938  0.86899  1.0000
  O   O64       1.0  0.10960  0.46073  0.80038  1.0000
  H   H8        1.0  0.15520  0.44105  0.74144  1.0000
  Cu  Cu4       1.0  0.08738  0.46083  0.85445  1.0000
  C   C73       1.0  0.10247  0.30786  0.23263  1.0000
  C   C74       1.0  0.12320  0.29931  0.19817  1.0000
  C   C75       1.0  0.11586  0.32124  0.16415  1.0000
  C   C76       1.0  0.08778  0.35177  0.16450  1.0000
  C   C77       1.0  0.06696  0.36038  0.19905  1.0000
  C   C78       1.0  0.07438  0.33838  0.23305  1.0000
  O   O65       1.0  0.10967  0.28635  0.26602  1.0000
  O   O66       1.0  0.15074  0.26938  0.19777  1.0000
  H   H9        1.0  0.13124  0.31486  0.13867  1.0000
  O   O67       1.0  0.08067  0.37324  0.13101  1.0000
  O   O68       1.0  0.03933  0.39034  0.19962  1.0000
  H   H10       1.0  0.05903  0.34472  0.25856  1.0000
  Cu  Cu5       1.0  0.03922  0.41257  0.14555  1.0000
  C   C79       1.0  0.20100  0.12267  0.69815  1.0000
  C   C80       1.0  0.19157  0.10293  0.73296  1.0000
  C   C81       1.0  0.16063  0.07532  0.73365  1.0000
  C   C82       1.0  0.13904  0.06738  0.69953  1.0000
  C   C83       1.0  0.14846  0.08716  0.66459  1.0000
  C   C84       1.0  0.17944  0.11477  0.66400  1.0000
  O   O69       1.0  0.23135  0.14975  0.69746  1.0000
  O   O70       1.0  0.21271  0.11067  0.76644  1.0000
  H   H11       1.0  0.15370  0.06074  0.75945  1.0000
  O   O71       1.0  0.10866  0.04024  0.70035  1.0000
  O   O72       1.0  0.12737  0.07952  0.63095  1.0000
  H   H12       1.0  0.18641  0.12938  0.63822  1.0000
  Cu  Cu6       1.0  0.08719  0.03902  0.64604  1.0000
  C   C85       1.0  0.37693  0.20060  0.19828  1.0000
  C   C86       1.0  0.39765  0.19205  0.23276  1.0000
  C   C87       1.0  0.42576  0.16156  0.23328  1.0000
  C   C88       1.0  0.43321  0.13954  0.19933  1.0000
  C   C89       1.0  0.41244  0.14808  0.16473  1.0000
  C   C90       1.0  0.38434  0.17861  0.16430  1.0000
  O   O73       1.0  0.34935  0.23051  0.19777  1.0000
  O   O74       1.0  0.39039  0.21361  0.26608  1.0000
  H   H13       1.0  0.44106  0.15528  0.25884  1.0000
  O   O75       1.0  0.46085  0.10961  0.19998  1.0000
  O   O76       1.0  0.41961  0.12656  0.13125  1.0000
  H   H14       1.0  0.36900  0.18493  0.13878  1.0000
  Cu  Cu7       1.0  0.46110  0.08727  0.14601  1.0000
  C   C91       1.0  0.29935  0.37694  0.69828  1.0000
  C   C92       1.0  0.30790  0.39765  0.73276  1.0000
  C   C93       1.0  0.33839  0.42576  0.73328  1.0000
  C   C94       1.0  0.36042  0.43321  0.69933  1.0000
  C   C95       1.0  0.35188  0.41245  0.66473  1.0000
  C   C96       1.0  0.32134  0.38435  0.66431  1.0000
  O   O77       1.0  0.26943  0.34936  0.69777  1.0000
  O   O78       1.0  0.28634  0.39038  0.76608  1.0000
  H   H15       1.0  0.34467  0.44106  0.75884  1.0000
  O   O79       1.0  0.39035  0.46085  0.69998  1.0000
  O   O80       1.0  0.37339  0.41962  0.63126  1.0000
  H   H16       1.0  0.31502  0.36902  0.63878  1.0000
  Cu  Cu8       1.0  0.41269  0.46111  0.64601  1.0000
  C   C97       1.0  0.89752  0.80795  0.73267  1.0000
  C   C98       1.0  0.87678  0.79939  0.69820  1.0000
  C   C99       1.0  0.88410  0.82132  0.66418  1.0000
  C   C100      1.0  0.91218  0.85187  0.66453  1.0000
  C   C101      1.0  0.93300  0.86048  0.69909  1.0000
  C   C102      1.0  0.92560  0.83848  0.73308  1.0000
  O   O81       1.0  0.89033  0.78643  0.76605  1.0000
  O   O82       1.0  0.84924  0.76946  0.69780  1.0000
  H   H17       1.0  0.86872  0.81494  0.63870  1.0000
  O   O83       1.0  0.91928  0.87334  0.63104  1.0000
  O   O84       1.0  0.96063  0.89045  0.69966  1.0000
  H   H18       1.0  0.94096  0.84482  0.75859  1.0000
  Cu  Cu9       1.0  0.96072  0.91269  0.64558  1.0000
  C   C103      1.0  0.69214  0.89753  0.23262  1.0000
  C   C104      1.0  0.70069  0.87680  0.19815  1.0000
  C   C105      1.0  0.67876  0.88414  0.16413  1.0000
  C   C106      1.0  0.64823  0.91222  0.16449  1.0000
  C   C107      1.0  0.63962  0.93304  0.19904  1.0000
  C   C108      1.0  0.66162  0.92562  0.23304  1.0000
  O   O85       1.0  0.71365  0.89033  0.26600  1.0000
  O   O86       1.0  0.73062  0.84926  0.19775  1.0000
  H   H19       1.0  0.68514  0.86876  0.13865  1.0000
  O   O87       1.0  0.62676  0.91934  0.13100  1.0000
  O   O88       1.0  0.60966  0.96067  0.19962  1.0000
  H   H20       1.0  0.65528  0.94097  0.25855  1.0000
  Cu  Cu10      1.0  0.58742  0.96079  0.14554  1.0000
  C   C109      1.0  0.62306  0.70067  0.69826  1.0000
  C   C110      1.0  0.60235  0.69213  0.73274  1.0000
  C   C111      1.0  0.57425  0.66163  0.73327  1.0000
  C   C112      1.0  0.56679  0.63960  0.69932  1.0000
  C   C113      1.0  0.58755  0.64814  0.66471  1.0000
  C   C114      1.0  0.61565  0.67868  0.66429  1.0000
  O   O89       1.0  0.65064  0.73059  0.69774  1.0000
  O   O90       1.0  0.60962  0.71369  0.76605  1.0000
  H   H21       1.0  0.55895  0.65535  0.75882  1.0000
  O   O91       1.0  0.53916  0.60967  0.69996  1.0000
  O   O92       1.0  0.58038  0.62663  0.63124  1.0000
  H   H22       1.0  0.63098  0.68500  0.63876  1.0000
  Cu  Cu11      1.0  0.53890  0.58732  0.64600  1.0000
  C   C115      1.0  0.79940  0.62307  0.19826  1.0000
  C   C116      1.0  0.80795  0.60235  0.23274  1.0000
  C   C117      1.0  0.83844  0.57424  0.23327  1.0000
  C   C118      1.0  0.86046  0.56679  0.19932  1.0000
  C   C119      1.0  0.85192  0.58755  0.16471  1.0000
  C   C120      1.0  0.82139  0.61565  0.16429  1.0000
  O   O93       1.0  0.76949  0.65064  0.19775  1.0000
  O   O94       1.0  0.78639  0.60961  0.26606  1.0000
  H   H23       1.0  0.84471  0.55894  0.25882  1.0000
  O   O95       1.0  0.89040  0.53915  0.19997  1.0000
  O   O96       1.0  0.87344  0.58039  0.13124  1.0000
  H   H24       1.0  0.81507  0.63099  0.13876  1.0000
  Cu  Cu12      1.0  0.91274  0.53890  0.14600  1.0000
  C   C121      1.0  0.87687  0.70065  0.80174  1.0000
  C   C122      1.0  0.89758  0.69212  0.76726  1.0000
  C   C123      1.0  0.92569  0.66163  0.76673  1.0000
  C   C124      1.0  0.93315  0.63959  0.80068  1.0000
  C   C125      1.0  0.91239  0.64812  0.83529  1.0000
  C   C126      1.0  0.88429  0.67865  0.83571  1.0000
  O   O97       1.0  0.84929  0.73056  0.80226  1.0000
  O   O98       1.0  0.89030  0.71369  0.73395  1.0000
  H   H25       1.0  0.94099  0.65536  0.74118  1.0000
  O   O99       1.0  0.96079  0.60966  0.80003  1.0000
  O   O100      1.0  0.91957  0.62659  0.86876  1.0000
  H   H26       1.0  0.86896  0.68496  0.86124  1.0000
  Cu  Cu13      1.0  0.96106  0.58731  0.85400  1.0000
  C   C127      1.0  0.79943  0.87684  0.30169  1.0000
  C   C128      1.0  0.80797  0.89757  0.26721  1.0000
  C   C129      1.0  0.83847  0.92567  0.26669  1.0000
  C   C130      1.0  0.86051  0.93311  0.30064  1.0000
  C   C131      1.0  0.85197  0.91234  0.33524  1.0000
  C   C132      1.0  0.82144  0.88425  0.33567  1.0000
  O   O101      1.0  0.76951  0.84927  0.30220  1.0000
  O   O102      1.0  0.78640  0.89031  0.23390  1.0000
  H   H27       1.0  0.84474  0.94097  0.24113  1.0000
  O   O103      1.0  0.89044  0.96074  0.29999  1.0000
  O   O104      1.0  0.87350  0.91950  0.36871  1.0000
  H   H28       1.0  0.81512  0.86891  0.36119  1.0000
  Cu  Cu14      1.0  0.91280  0.96099  0.35396  1.0000
  C   C133      1.0  0.60239  0.80795  0.76734  1.0000
  C   C134      1.0  0.62313  0.79938  0.80180  1.0000
  C   C135      1.0  0.61581  0.82129  0.83583  1.0000
  C   C136      1.0  0.58773  0.85183  0.83548  1.0000
  C   C137      1.0  0.56690  0.86045  0.80093  1.0000
  C   C138      1.0  0.57430  0.83847  0.76693  1.0000
  O   O105      1.0  0.60958  0.78645  0.73395  1.0000
  O   O106      1.0  0.65068  0.76945  0.80220  1.0000
  H   H29       1.0  0.63119  0.81490  0.86131  1.0000
  O   O107      1.0  0.58062  0.87328  0.86898  1.0000
  O   O108      1.0  0.53926  0.89041  0.80037  1.0000
  H   H30       1.0  0.55894  0.84482  0.74142  1.0000
  Cu  Cu15      1.0  0.53917  0.91263  0.85445  1.0000
  C   C139      1.0  0.69213  0.60240  0.26734  1.0000
  C   C140      1.0  0.70070  0.62313  0.30181  1.0000
  C   C141      1.0  0.67878  0.61580  0.33583  1.0000
  C   C142      1.0  0.64824  0.58772  0.33548  1.0000
  C   C143      1.0  0.63961  0.56690  0.30093  1.0000
  C   C144      1.0  0.66160  0.57431  0.26694  1.0000
  O   O109      1.0  0.71363  0.60959  0.23396  1.0000
  O   O110      1.0  0.73063  0.65067  0.30220  1.0000
  H   H31       1.0  0.68517  0.63118  0.36131  1.0000
  O   O111      1.0  0.62678  0.58061  0.36898  1.0000
  O   O112      1.0  0.60965  0.53927  0.30037  1.0000
  H   H32       1.0  0.65525  0.55895  0.24143  1.0000
  Cu  Cu16      1.0  0.58743  0.53917  0.35445  1.0000
  Cu  Cu17      1.0  0.50000  0.00010  0.00010  1.0000
  Cu  Cu18      1.0  0.50001  0.50001  0.50000  1.0000
  Cu  Cu19      1.0  0.00010  0.50000  0.99990  1.0000
  Cu  Cu20      1.0  0.99990  0.99990  0.50000  1.0000
  C   C145      1.0  0.25004  0.28768  0.25000  1.0000
  C   C146      1.0  0.21737  0.26882  0.24999  1.0000
  C   C147      1.0  0.21737  0.23110  0.24999  1.0000
  C   C148      1.0  0.25004  0.21223  0.25000  1.0000
  C   C149      1.0  0.28271  0.23110  0.25000  1.0000
  C   C150      1.0  0.28271  0.26882  0.25000  1.0000
  H   H33       1.0  0.25004  0.31598  0.25000  1.0000
  O   O113      1.0  0.18796  0.28580  0.24999  1.0000
  O   O114      1.0  0.18796  0.21412  0.24999  1.0000
  H   H34       1.0  0.25004  0.18394  0.25000  1.0000
  O   O115      1.0  0.31211  0.21412  0.25001  1.0000
  O   O116      1.0  0.31211  0.28580  0.25001  1.0000
  C   C151      1.0  0.21223  0.25005  0.75003  1.0000
  C   C152      1.0  0.23109  0.21737  0.75003  1.0000
  C   C153      1.0  0.26881  0.21736  0.75003  1.0000
  C   C154      1.0  0.28768  0.25003  0.75002  1.0000
  C   C155      1.0  0.26883  0.28271  0.75002  1.0000
  C   C156      1.0  0.23110  0.28271  0.75002  1.0000
  H   H35       1.0  0.18394  0.25005  0.75003  1.0000
  O   O117      1.0  0.21410  0.18797  0.75004  1.0000
  O   O118      1.0  0.28578  0.18796  0.75004  1.0000
  H   H36       1.0  0.31598  0.25002  0.75002  1.0000
  O   O119      1.0  0.28581  0.31211  0.75001  1.0000
  O   O120      1.0  0.21413  0.31212  0.75002  1.0000
  C   C157      1.0  0.74996  0.78776  0.75000  1.0000
  C   C158      1.0  0.78263  0.76890  0.75001  1.0000
  C   C159      1.0  0.78263  0.73117  0.75000  1.0000
  C   C160      1.0  0.74996  0.71231  0.74999  1.0000
  C   C161      1.0  0.71729  0.73118  0.74999  1.0000
  C   C162      1.0  0.71729  0.76891  0.75000  1.0000
  H   H37       1.0  0.74997  0.81606  0.75001  1.0000
  O   O121      1.0  0.81204  0.78587  0.75001  1.0000
  O   O122      1.0  0.81203  0.71419  0.75001  1.0000
  H   H38       1.0  0.74995  0.68402  0.74999  1.0000
  O   O123      1.0  0.68788  0.71421  0.74998  1.0000
  O   O124      1.0  0.68789  0.78588  0.74999  1.0000
  C   C163      1.0  0.71232  0.74996  0.24997  1.0000
  C   C164      1.0  0.73118  0.78263  0.24997  1.0000
  C   C165      1.0  0.76890  0.78263  0.24997  1.0000
  C   C166      1.0  0.78777  0.74996  0.24997  1.0000
  C   C167      1.0  0.76890  0.71729  0.24998  1.0000
  C   C168      1.0  0.73118  0.71729  0.24998  1.0000
  H   H39       1.0  0.68402  0.74996  0.24998  1.0000
  O   O125      1.0  0.71420  0.81204  0.24996  1.0000
  O   O126      1.0  0.78588  0.81203  0.24996  1.0000
  H   H40       1.0  0.81606  0.74996  0.24997  1.0000
  O   O127      1.0  0.78588  0.68788  0.24998  1.0000
  O   O128      1.0  0.71420  0.68789  0.24998  1.0000
