data_image0
_chemical_formula_structural       Fe8C6O6C6O6C6O6C6O6C6O6C6O6C6O6C6O6Cu4C6HO2HO2C6HO2HO2C6HO2HO2C6HO2HO2
_chemical_formula_sum              "Fe8 C72 O64 Cu4 H8"
_cell_length_a       16.594
_cell_length_b       16.594
_cell_length_c       19.6315
_cell_angle_alpha    90.0005
_cell_angle_beta     89.9996
_cell_angle_gamma    89.9983

_space_group_name_H-M_alt    "P 1"
_space_group_IT_number       1

loop_
  _space_group_symop_operation_xyz
  'x, y, z'

loop_
  _atom_site_type_symbol
  _atom_site_label
  _atom_site_symmetry_multiplicity
  _atom_site_fract_x
  _atom_site_fract_y
  _atom_site_fract_z
  _atom_site_occupancy
  Fe  Fe1       1.0  0.02510  0.25000  0.25000  1.0000
  Fe  Fe2       1.0  0.25000  0.02510  0.75000  1.0000
  Fe  Fe3       1.0  0.47490  0.25000  0.25000  1.0000
  Fe  Fe4       1.0  0.25000  0.47490  0.75000  1.0000
  Fe  Fe5       1.0  0.97490  0.75000  0.75000  1.0000
  Fe  Fe6       1.0  0.75000  0.97490  0.25000  1.0000
  Fe  Fe7       1.0  0.52510  0.75000  0.75000  1.0000
  Fe  Fe8       1.0  0.75000  0.52510  0.25000  1.0000
  C   C1        1.0  0.58349  0.14314  0.21065  1.0000
  C   C2        1.0  0.64315  0.08349  0.21065  1.0000
  C   C3        1.0  0.64686  0.02754  0.15736  1.0000
  C   C4        1.0  0.59091  0.03125  0.10407  1.0000
  C   C5        1.0  0.53126  0.09091  0.10408  1.0000
  C   C6        1.0  0.52754  0.14686  0.15736  1.0000
  O   O1        1.0  0.58015  0.19349  0.25861  1.0000
  O   O2        1.0  0.69350  0.08014  0.25861  1.0000
  O   O3        1.0  0.70055  0.97385  0.15736  1.0000
  O   O4        1.0  0.59425  0.98090  0.05612  1.0000
  O   O5        1.0  0.48090  0.09425  0.05612  1.0000
  O   O6        1.0  0.47385  0.20055  0.15736  1.0000
  C   C7        1.0  0.47246  0.64685  0.65737  1.0000
  C   C8        1.0  0.46875  0.59091  0.60408  1.0000
  C   C9        1.0  0.40909  0.53125  0.60408  1.0000
  C   C10       1.0  0.35315  0.52754  0.65737  1.0000
  C   C11       1.0  0.35686  0.58348  0.71066  1.0000
  C   C12       1.0  0.41652  0.64314  0.71066  1.0000
  O   O7        1.0  0.52615  0.70054  0.65737  1.0000
  O   O8        1.0  0.51910  0.59425  0.55612  1.0000
  O   O9        1.0  0.40575  0.48090  0.55612  1.0000
  O   O10       1.0  0.29946  0.47385  0.65737  1.0000
  O   O11       1.0  0.30651  0.58014  0.75862  1.0000
  O   O12       1.0  0.41986  0.69349  0.75862  1.0000
  C   C13       1.0  0.97245  0.35314  0.15736  1.0000
  C   C14       1.0  0.96874  0.40909  0.10408  1.0000
  C   C15       1.0  0.90909  0.46875  0.10408  1.0000
  C   C16       1.0  0.85314  0.47246  0.15736  1.0000
  C   C17       1.0  0.85685  0.41651  0.21065  1.0000
  C   C18       1.0  0.91651  0.35685  0.21065  1.0000
  O   O13       1.0  0.02615  0.29945  0.15736  1.0000
  O   O14       1.0  0.01909  0.40575  0.05612  1.0000
  O   O15       1.0  0.90574  0.51910  0.05612  1.0000
  O   O16       1.0  0.79945  0.52615  0.15736  1.0000
  O   O17       1.0  0.80650  0.41985  0.25861  1.0000
  O   O18       1.0  0.91985  0.30650  0.25861  1.0000
  C   C19       1.0  0.08348  0.85686  0.71065  1.0000
  C   C20       1.0  0.14314  0.91652  0.71065  1.0000
  C   C21       1.0  0.14685  0.97246  0.65737  1.0000
  C   C22       1.0  0.09091  0.96875  0.60408  1.0000
  C   C23       1.0  0.03125  0.90909  0.60408  1.0000
  C   C24       1.0  0.02754  0.85315  0.65737  1.0000
  O   O19       1.0  0.08014  0.80651  0.75861  1.0000
  O   O20       1.0  0.19349  0.91986  0.75861  1.0000
  O   O21       1.0  0.20054  0.02615  0.65737  1.0000
  O   O22       1.0  0.09425  0.01910  0.55612  1.0000
  O   O23       1.0  0.98090  0.90575  0.55612  1.0000
  O   O24       1.0  0.97385  0.79946  0.65737  1.0000
  C   C25       1.0  0.58348  0.35686  0.28934  1.0000
  C   C26       1.0  0.64314  0.41652  0.28934  1.0000
  C   C27       1.0  0.64685  0.47246  0.34263  1.0000
  C   C28       1.0  0.59091  0.46875  0.39592  1.0000
  C   C29       1.0  0.53125  0.40909  0.39592  1.0000
  C   C30       1.0  0.52754  0.35315  0.34263  1.0000
  O   O25       1.0  0.58014  0.30651  0.24138  1.0000
  O   O26       1.0  0.69349  0.41986  0.24138  1.0000
  O   O27       1.0  0.70054  0.52615  0.34263  1.0000
  O   O28       1.0  0.59425  0.51910  0.44388  1.0000
  O   O29       1.0  0.48090  0.40575  0.44388  1.0000
  O   O30       1.0  0.47385  0.29946  0.34263  1.0000
  C   C31       1.0  0.08349  0.64314  0.78935  1.0000
  C   C32       1.0  0.14315  0.58349  0.78935  1.0000
  C   C33       1.0  0.14686  0.52754  0.84264  1.0000
  C   C34       1.0  0.09092  0.53125  0.89592  1.0000
  C   C35       1.0  0.03126  0.59091  0.89592  1.0000
  C   C36       1.0  0.02754  0.64686  0.84264  1.0000
  O   O31       1.0  0.08015  0.69350  0.74139  1.0000
  O   O32       1.0  0.19350  0.58015  0.74139  1.0000
  O   O33       1.0  0.20055  0.47385  0.84263  1.0000
  O   O34       1.0  0.09426  0.48090  0.94388  1.0000
  O   O35       1.0  0.98091  0.59425  0.94388  1.0000
  O   O36       1.0  0.97385  0.70055  0.84264  1.0000
  C   C37       1.0  0.97246  0.14685  0.34263  1.0000
  C   C38       1.0  0.96875  0.09090  0.39592  1.0000
  C   C39       1.0  0.90909  0.03125  0.39592  1.0000
  C   C40       1.0  0.85315  0.02754  0.34264  1.0000
  C   C41       1.0  0.85686  0.08348  0.28935  1.0000
  C   C42       1.0  0.91652  0.14314  0.28935  1.0000
  O   O37       1.0  0.02615  0.20054  0.34263  1.0000
  O   O38       1.0  0.01910  0.09425  0.44388  1.0000
  O   O39       1.0  0.90575  0.98090  0.44388  1.0000
  O   O40       1.0  0.79946  0.97385  0.34264  1.0000
  O   O41       1.0  0.80651  0.08014  0.24139  1.0000
  O   O42       1.0  0.91986  0.19349  0.24139  1.0000
  C   C43       1.0  0.47246  0.85314  0.84264  1.0000
  C   C44       1.0  0.46874  0.90909  0.89593  1.0000
  C   C45       1.0  0.40909  0.96875  0.89593  1.0000
  C   C46       1.0  0.35314  0.97246  0.84264  1.0000
  C   C47       1.0  0.35686  0.91651  0.78935  1.0000
  C   C48       1.0  0.41651  0.85686  0.78935  1.0000
  O   O43       1.0  0.52615  0.79945  0.84264  1.0000
  O   O44       1.0  0.51910  0.90575  0.94388  1.0000
  O   O45       1.0  0.40575  0.01910  0.94389  1.0000
  O   O46       1.0  0.29945  0.02615  0.84264  1.0000
  O   O47       1.0  0.30650  0.91985  0.74139  1.0000
  O   O48       1.0  0.41985  0.80651  0.74139  1.0000
  Cu  Cu1       1.0  0.50000  0.99990  0.99990  1.0000
  Cu  Cu2       1.0  0.50000  0.50000  0.50000  1.0000
  Cu  Cu3       1.0  0.99990  0.50000  0.00010  1.0000
  Cu  Cu4       1.0  0.99990  0.00010  0.50000  1.0000
  C   C49       1.0  0.25000  0.33437  0.25000  1.0000
  C   C50       1.0  0.17693  0.29218  0.25000  1.0000
  C   C51       1.0  0.17694  0.20782  0.25000  1.0000
  C   C52       1.0  0.25000  0.16563  0.25000  1.0000
  C   C53       1.0  0.32307  0.20782  0.25000  1.0000
  C   C54       1.0  0.32306  0.29218  0.25000  1.0000
  H   H1        1.0  0.25000  0.39764  0.25000  1.0000
  O   O49       1.0  0.11117  0.33015  0.25000  1.0000
  O   O50       1.0  0.11118  0.16985  0.25000  1.0000
  H   H2        1.0  0.25001  0.10236  0.25000  1.0000
  O   O51       1.0  0.38883  0.16985  0.25000  1.0000
  O   O52       1.0  0.38882  0.33015  0.25000  1.0000
  C   C55       1.0  0.16563  0.25000  0.75000  1.0000
  C   C56       1.0  0.20782  0.17694  0.75000  1.0000
  C   C57       1.0  0.29218  0.17693  0.75000  1.0000
  C   C58       1.0  0.33437  0.25000  0.75000  1.0000
  C   C59       1.0  0.29218  0.32306  0.75000  1.0000
  C   C60       1.0  0.20782  0.32307  0.75000  1.0000
  H   H3        1.0  0.10236  0.25001  0.75000  1.0000
  O   O53       1.0  0.16985  0.11118  0.75000  1.0000
  O   O54       1.0  0.33015  0.11117  0.75000  1.0000
  H   H4        1.0  0.39764  0.24999  0.75000  1.0000
  O   O55       1.0  0.33015  0.38882  0.75000  1.0000
  O   O56       1.0  0.16985  0.38883  0.75000  1.0000
  C   C61       1.0  0.75000  0.83437  0.75000  1.0000
  C   C62       1.0  0.82306  0.79218  0.75000  1.0000
  C   C63       1.0  0.82307  0.70782  0.75000  1.0000
  C   C64       1.0  0.75000  0.66563  0.75000  1.0000
  C   C65       1.0  0.67694  0.70781  0.75000  1.0000
  C   C66       1.0  0.67693  0.79218  0.75000  1.0000
  H   H5        1.0  0.74999  0.89764  0.75000  1.0000
  O   O57       1.0  0.88882  0.83015  0.75000  1.0000
  O   O58       1.0  0.88883  0.66985  0.75000  1.0000
  H   H6        1.0  0.75000  0.60236  0.75000  1.0000
  O   O59       1.0  0.61118  0.66985  0.75000  1.0000
  O   O60       1.0  0.61117  0.83015  0.75000  1.0000
  C   C67       1.0  0.66563  0.75000  0.25000  1.0000
  C   C68       1.0  0.70782  0.82307  0.25000  1.0000
  C   C69       1.0  0.79218  0.82306  0.25000  1.0000
  C   C70       1.0  0.83437  0.75000  0.25000  1.0000
  C   C71       1.0  0.79218  0.67693  0.25000  1.0000
  C   C72       1.0  0.70782  0.67694  0.25000  1.0000
  H   H7        1.0  0.60236  0.75000  0.25000  1.0000
  O   O61       1.0  0.66985  0.88883  0.25000  1.0000
  O   O62       1.0  0.83015  0.88882  0.25000  1.0000
  H   H8        1.0  0.89764  0.74999  0.25000  1.0000
  O   O63       1.0  0.83015  0.61117  0.25000  1.0000
  O   O64       1.0  0.66985  0.61118  0.25000  1.0000
