data_image0
_chemical_formula_structural       Fe16C7NCNCNC3NCNC11NCNC7NHO2H2O2H2O2H2O2HNiC7NCNCNC3NCNC11NCNC7NHO2H2O2H2O2H2O2HNiC7NCNCNC3NCNC11NCNC7NHO2H2O2H2O2H2O2HNiC7NCNCNC3NCNC11NCNC7NHO2H2O2H2O2H2O2HNiC7NCNCNC3NCNC11NCNC7NHO2H2O2H2O2H2O2HNiC7NCNCNC3NCNC11NCNC7NHO2H2O2H2O2H2O2HNiC7NCNCNC3NCNC11NCNC7NHO2H2O2H2O2H2O2HNiC7NCNCNC3NCNC11NCNC7NHO2H2O2H2O2H2O2HNiC7NCNCNC3NCNC11NCNC7NHO2H2O2H2O2H2O2HNiC7NCNCNC3NCNC11NCNC7NHO2H2O2H2O2H2O2HNiC7NCNCNC3NCNC11NCNC7NHO2H2O2H2O2H2O2HNiC7NCNCNC3NCNC11NCNC7NHO2H2O2H2O2H2O2HNi
_chemical_formula_sum              "Fe16 C384 N96 H96 O96 Ni12"
_cell_length_a       38.6377
_cell_length_b       38.629
_cell_length_c       27.3165
_cell_angle_alpha    89.9995
_cell_angle_beta     89.9986
_cell_angle_gamma    89.9902

_space_group_name_H-M_alt    "P 1"
_space_group_IT_number       1

loop_
  _space_group_symop_operation_xyz
  'x, y, z'

loop_
  _atom_site_type_symbol
  _atom_site_label
  _atom_site_symmetry_multiplicity
  _atom_site_fract_x
  _atom_site_fract_y
  _atom_site_fract_z
  _atom_site_occupancy
  Fe  Fe1       1.0  0.00010  0.25146  0.25064  1.0000
  Fe  Fe2       1.0  0.75072  0.00175  0.25072  1.0000
  Fe  Fe3       1.0  0.00010  0.75141  0.25068  1.0000
  Fe  Fe4       1.0  0.25066  0.00118  0.25072  1.0000
  Fe  Fe5       1.0  0.00010  0.75143  0.75069  1.0000
  Fe  Fe6       1.0  0.25067  0.00130  0.75072  1.0000
  Fe  Fe7       1.0  0.00010  0.25147  0.75064  1.0000
  Fe  Fe8       1.0  0.75073  0.00162  0.75070  1.0000
  Fe  Fe9       1.0  0.50080  0.75145  0.75053  1.0000
  Fe  Fe10      1.0  0.25073  0.50153  0.75044  1.0000
  Fe  Fe11      1.0  0.50059  0.25141  0.75049  1.0000
  Fe  Fe12      1.0  0.75066  0.50134  0.75051  1.0000
  Fe  Fe13      1.0  0.50033  0.25143  0.25053  1.0000
  Fe  Fe14      1.0  0.75068  0.50113  0.25048  1.0000
  Fe  Fe15      1.0  0.50106  0.75147  0.25052  1.0000
  Fe  Fe16      1.0  0.25073  0.50184  0.25041  1.0000
  C   C1        1.0  0.96014  0.85248  0.25080  1.0000
  C   C2        1.0  0.98033  0.81786  0.25068  1.0000
  C   C3        1.0  0.02060  0.81781  0.25051  1.0000
  C   C4        1.0  0.04088  0.85237  0.25042  1.0000
  C   C5        1.0  0.01981  0.88596  0.25052  1.0000
  C   C6        1.0  0.98129  0.88601  0.25074  1.0000
  C   C7        1.0  0.96930  0.92373  0.25079  1.0000
  N   N1        1.0  0.00010  0.94808  0.25062  1.0000
  C   C8        1.0  0.03189  0.92365  0.25045  1.0000
  N   N2        1.0  0.06882  0.93313  0.25022  1.0000
  C   C9        1.0  0.07839  0.97004  0.25025  1.0000
  N   N3        1.0  0.05403  0.00137  0.25041  1.0000
  C   C10       1.0  0.07845  0.03264  0.25049  1.0000
  C   C11       1.0  0.11613  0.02056  0.25033  1.0000
  C   C12       1.0  0.11610  0.98204  0.25020  1.0000
  N   N4        1.0  0.00010  0.05479  0.25052  1.0000
  C   C13       1.0  0.03207  0.07915  0.25066  1.0000
  N   N5        1.0  0.06897  0.06958  0.25073  1.0000
  C   C14       1.0  0.02007  0.11687  0.25056  1.0000
  C   C15       1.0  0.98155  0.11692  0.25035  1.0000
  C   C16       1.0  0.96948  0.07922  0.25029  1.0000
  C   C17       1.0  0.14963  0.96089  0.25012  1.0000
  C   C18       1.0  0.18423  0.98111  0.25012  1.0000
  C   C19       1.0  0.18426  0.02138  0.25016  1.0000
  C   C20       1.0  0.14969  0.04165  0.25030  1.0000
  C   C21       1.0  0.96048  0.15049  0.25026  1.0000
  C   C22       1.0  0.98074  0.18506  0.25041  1.0000
  C   C23       1.0  0.02101  0.18501  0.25058  1.0000
  C   C24       1.0  0.04121  0.15040  0.25064  1.0000
  N   N6        1.0  0.94735  0.00150  0.25047  1.0000
  C   C25       1.0  0.92300  0.03284  0.25024  1.0000
  N   N7        1.0  0.93256  0.06974  0.25006  1.0000
  C   C26       1.0  0.88529  0.02086  0.25025  1.0000
  C   C27       1.0  0.88524  0.98233  0.25050  1.0000
  C   C28       1.0  0.92292  0.97024  0.25066  1.0000
  C   C29       1.0  0.85166  0.96127  0.25050  1.0000
  C   C30       1.0  0.81711  0.98156  0.25027  1.0000
  C   C31       1.0  0.81716  0.02185  0.25011  1.0000
  C   C32       1.0  0.85178  0.04203  0.25010  1.0000
  N   N8        1.0  0.93241  0.93331  0.25092  1.0000
  H   H1        1.0  0.93297  0.85297  0.25091  1.0000
  O   O1        1.0  0.96355  0.78869  0.25072  1.0000
  O   O2        1.0  0.03730  0.78859  0.25044  1.0000
  H   H2        1.0  0.06805  0.85278  0.25029  1.0000
  H   H3        1.0  0.14918  0.93372  0.25007  1.0000
  O   O3        1.0  0.21341  0.96434  0.25011  1.0000
  O   O4        1.0  0.21345  0.03811  0.25007  1.0000
  H   H4        1.0  0.14926  0.06883  0.25035  1.0000
  H   H5        1.0  0.93331  0.15008  0.25013  1.0000
  O   O5        1.0  0.96403  0.21427  0.25042  1.0000
  O   O6        1.0  0.03778  0.21418  0.25068  1.0000
  H   H6        1.0  0.06838  0.14993  0.25075  1.0000
  H   H7        1.0  0.85206  0.93409  0.25062  1.0000
  O   O7        1.0  0.78790  0.96487  0.25019  1.0000
  O   O8        1.0  0.78800  0.03863  0.25000  1.0000
  H   H8        1.0  0.85226  0.06920  0.24996  1.0000
  Ni  Ni1       1.0  0.00010  0.00143  0.25059  1.0000
  C   C33       1.0  0.96024  0.85247  0.75143  1.0000
  C   C34       1.0  0.98045  0.81786  0.75131  1.0000
  C   C35       1.0  0.02072  0.81782  0.75114  1.0000
  C   C36       1.0  0.04098  0.85240  0.75105  1.0000
  C   C37       1.0  0.01989  0.88597  0.75115  1.0000
  C   C38       1.0  0.98138  0.88600  0.75137  1.0000
  C   C39       1.0  0.96937  0.92372  0.75142  1.0000
  N   N9        1.0  0.00010  0.94808  0.75125  1.0000
  C   C40       1.0  0.03195  0.92367  0.75108  1.0000
  N   N10       1.0  0.06887  0.93317  0.75085  1.0000
  C   C41       1.0  0.07842  0.97008  0.75088  1.0000
  N   N11       1.0  0.05405  0.00140  0.75104  1.0000
  C   C42       1.0  0.07845  0.03269  0.75112  1.0000
  C   C43       1.0  0.11614  0.02063  0.75096  1.0000
  C   C44       1.0  0.11613  0.98210  0.75083  1.0000
  N   N12       1.0  0.00010  0.05480  0.75114  1.0000
  C   C45       1.0  0.03204  0.07917  0.75128  1.0000
  N   N13       1.0  0.06895  0.06962  0.75136  1.0000
  C   C46       1.0  0.02003  0.11689  0.75118  1.0000
  C   C47       1.0  0.98151  0.11691  0.75097  1.0000
  C   C48       1.0  0.96946  0.07921  0.75092  1.0000
  C   C49       1.0  0.14968  0.96098  0.75075  1.0000
  C   C50       1.0  0.18426  0.98121  0.75076  1.0000
  C   C51       1.0  0.18427  0.02149  0.75079  1.0000
  C   C52       1.0  0.14969  0.04174  0.75093  1.0000
  C   C53       1.0  0.96042  0.15048  0.75088  1.0000
  C   C54       1.0  0.98066  0.18505  0.75103  1.0000
  C   C55       1.0  0.02093  0.18503  0.75120  1.0000
  C   C56       1.0  0.04115  0.15043  0.75127  1.0000
  N   N14       1.0  0.94737  0.00148  0.75109  1.0000
  C   C57       1.0  0.92300  0.03280  0.75086  1.0000
  N   N15       1.0  0.93254  0.06971  0.75068  1.0000
  C   C58       1.0  0.88530  0.02080  0.75087  1.0000
  C   C59       1.0  0.88527  0.98227  0.75112  1.0000
  C   C60       1.0  0.92296  0.97020  0.75128  1.0000
  C   C61       1.0  0.85170  0.96119  0.75112  1.0000
  C   C62       1.0  0.81714  0.98147  0.75089  1.0000
  C   C63       1.0  0.81717  0.02175  0.75073  1.0000
  C   C64       1.0  0.85177  0.04195  0.75071  1.0000
  N   N16       1.0  0.93246  0.93328  0.75154  1.0000
  H   H9        1.0  0.93307  0.85293  0.75154  1.0000
  O   O9        1.0  0.96369  0.78868  0.75135  1.0000
  O   O10       1.0  0.03744  0.78861  0.75107  1.0000
  H   H10       1.0  0.06815  0.85282  0.75092  1.0000
  H   H11       1.0  0.14923  0.93380  0.75071  1.0000
  O   O11       1.0  0.21345  0.96446  0.75074  1.0000
  O   O12       1.0  0.21345  0.03823  0.75071  1.0000
  H   H12       1.0  0.14925  0.06891  0.75098  1.0000
  H   H13       1.0  0.93324  0.15005  0.75075  1.0000
  O   O13       1.0  0.96394  0.21425  0.75104  1.0000
  O   O14       1.0  0.03768  0.21421  0.75130  1.0000
  H   H14       1.0  0.06832  0.14997  0.75137  1.0000
  H   H15       1.0  0.85212  0.93401  0.75125  1.0000
  O   O15       1.0  0.78794  0.96476  0.75081  1.0000
  O   O16       1.0  0.78800  0.03852  0.75061  1.0000
  H   H16       1.0  0.85225  0.06913  0.75058  1.0000
  Ni  Ni2       1.0  0.00010  0.00144  0.75122  1.0000
  C   C65       1.0  0.46027  0.35244  0.75049  1.0000
  C   C66       1.0  0.48049  0.31784  0.75037  1.0000
  C   C67       1.0  0.52076  0.31781  0.75020  1.0000
  C   C68       1.0  0.54101  0.35240  0.75012  1.0000
  C   C69       1.0  0.51991  0.38596  0.75023  1.0000
  C   C70       1.0  0.48140  0.38598  0.75044  1.0000
  C   C71       1.0  0.46938  0.42370  0.75050  1.0000
  N   N17       1.0  0.50068  0.44807  0.75034  1.0000
  C   C72       1.0  0.53197  0.42366  0.75017  1.0000
  N   N18       1.0  0.56888  0.43317  0.74994  1.0000
  C   C73       1.0  0.57842  0.47009  0.74998  1.0000
  N   N19       1.0  0.55404  0.50140  0.75014  1.0000
  C   C74       1.0  0.57843  0.53270  0.75023  1.0000
  C   C75       1.0  0.61613  0.52064  0.75007  1.0000
  C   C76       1.0  0.61613  0.48212  0.74994  1.0000
  N   N20       1.0  0.50072  0.55478  0.75025  1.0000
  C   C77       1.0  0.53202  0.57916  0.75040  1.0000
  N   N21       1.0  0.56892  0.56962  0.75047  1.0000
  C   C78       1.0  0.51999  0.61688  0.75030  1.0000
  C   C79       1.0  0.48147  0.61689  0.75009  1.0000
  C   C80       1.0  0.46943  0.57919  0.75002  1.0000
  C   C81       1.0  0.64968  0.46100  0.74986  1.0000
  C   C82       1.0  0.68426  0.48124  0.74987  1.0000
  C   C83       1.0  0.68425  0.52152  0.74991  1.0000
  C   C84       1.0  0.64967  0.54176  0.75005  1.0000
  C   C85       1.0  0.46037  0.65045  0.75000  1.0000
  C   C86       1.0  0.48061  0.68503  0.75016  1.0000
  C   C87       1.0  0.52088  0.68502  0.75033  1.0000
  C   C88       1.0  0.54111  0.65042  0.75040  1.0000
  N   N22       1.0  0.44736  0.50145  0.75019  1.0000
  C   C89       1.0  0.42298  0.53277  0.74995  1.0000
  N   N23       1.0  0.43252  0.56968  0.74979  1.0000
  C   C90       1.0  0.38528  0.52076  0.74996  1.0000
  C   C91       1.0  0.38526  0.48223  0.75020  1.0000
  C   C92       1.0  0.42296  0.47017  0.75036  1.0000
  C   C93       1.0  0.35170  0.46114  0.75019  1.0000
  C   C94       1.0  0.31713  0.48141  0.74996  1.0000
  C   C95       1.0  0.31716  0.52169  0.74981  1.0000
  C   C96       1.0  0.35176  0.54190  0.74980  1.0000
  N   N24       1.0  0.43247  0.43325  0.75062  1.0000
  H   H17       1.0  0.43310  0.35290  0.75060  1.0000
  O   O17       1.0  0.46374  0.28865  0.75041  1.0000
  O   O18       1.0  0.53748  0.28861  0.75014  1.0000
  H   H18       1.0  0.56818  0.35283  0.75000  1.0000
  H   H19       1.0  0.64924  0.43383  0.74981  1.0000
  O   O19       1.0  0.71345  0.46450  0.74986  1.0000
  O   O20       1.0  0.71344  0.53827  0.74983  1.0000
  H   H20       1.0  0.64922  0.56894  0.75010  1.0000
  H   H21       1.0  0.43320  0.65002  0.74986  1.0000
  O   O21       1.0  0.46388  0.71423  0.75017  1.0000
  O   O22       1.0  0.53762  0.71420  0.75044  1.0000
  H   H22       1.0  0.56828  0.64997  0.75051  1.0000
  H   H23       1.0  0.35213  0.43396  0.75032  1.0000
  O   O23       1.0  0.28794  0.46469  0.74988  1.0000
  O   O24       1.0  0.28798  0.53846  0.74969  1.0000
  H   H24       1.0  0.35222  0.56908  0.74968  1.0000
  Ni  Ni3       1.0  0.50070  0.50142  0.75031  1.0000
  C   C97       1.0  0.46012  0.35250  0.25169  1.0000
  C   C98       1.0  0.48030  0.31788  0.25157  1.0000
  C   C99       1.0  0.52057  0.31781  0.25140  1.0000
  C   C100      1.0  0.54086  0.35237  0.25132  1.0000
  C   C101      1.0  0.51980  0.38596  0.25142  1.0000
  C   C102      1.0  0.48128  0.38602  0.25163  1.0000
  C   C103      1.0  0.46930  0.42375  0.25169  1.0000
  N   N25       1.0  0.50063  0.44809  0.25153  1.0000
  C   C104      1.0  0.53189  0.42365  0.25136  1.0000
  N   N26       1.0  0.56882  0.43312  0.25113  1.0000
  C   C105      1.0  0.57840  0.47003  0.25116  1.0000
  N   N27       1.0  0.55405  0.50136  0.25133  1.0000
  C   C106      1.0  0.57847  0.53263  0.25141  1.0000
  C   C107      1.0  0.61616  0.52054  0.25125  1.0000
  C   C108      1.0  0.61612  0.48202  0.25112  1.0000
  N   N28       1.0  0.50078  0.55480  0.25143  1.0000
  C   C109      1.0  0.53211  0.57915  0.25157  1.0000
  N   N29       1.0  0.56900  0.56957  0.25165  1.0000
  C   C110      1.0  0.52012  0.61688  0.25147  1.0000
  C   C111      1.0  0.48160  0.61693  0.25126  1.0000
  C   C112      1.0  0.46952  0.57924  0.25120  1.0000
  C   C113      1.0  0.64964  0.46087  0.25105  1.0000
  C   C114      1.0  0.68424  0.48107  0.25105  1.0000
  C   C115      1.0  0.68428  0.52135  0.25109  1.0000
  C   C116      1.0  0.64972  0.54162  0.25123  1.0000
  C   C117      1.0  0.46054  0.65051  0.25117  1.0000
  C   C118      1.0  0.48081  0.68507  0.25132  1.0000
  C   C119      1.0  0.52108  0.68501  0.25150  1.0000
  C   C120      1.0  0.54127  0.65040  0.25157  1.0000
  N   N30       1.0  0.44737  0.50153  0.25137  1.0000
  C   C121      1.0  0.42303  0.53287  0.25113  1.0000
  N   N31       1.0  0.43260  0.56977  0.25096  1.0000
  C   C122      1.0  0.38531  0.52090  0.25114  1.0000
  C   C123      1.0  0.38525  0.48237  0.25139  1.0000
  C   C124      1.0  0.42294  0.47027  0.25155  1.0000
  C   C125      1.0  0.35167  0.46132  0.25138  1.0000
  C   C126      1.0  0.31712  0.48162  0.25115  1.0000
  C   C127      1.0  0.31719  0.52190  0.25099  1.0000
  C   C128      1.0  0.35181  0.54208  0.25098  1.0000
  N   N32       1.0  0.43241  0.43334  0.25181  1.0000
  H   H25       1.0  0.43295  0.35299  0.25180  1.0000
  O   O25       1.0  0.46352  0.28871  0.25161  1.0000
  O   O26       1.0  0.53727  0.28859  0.25134  1.0000
  H   H26       1.0  0.56803  0.35277  0.25119  1.0000
  H   H27       1.0  0.64918  0.43369  0.25099  1.0000
  O   O27       1.0  0.71342  0.46430  0.25104  1.0000
  O   O28       1.0  0.71348  0.53806  0.25101  1.0000
  H   H28       1.0  0.64930  0.56880  0.25128  1.0000
  H   H29       1.0  0.43336  0.65011  0.25103  1.0000
  O   O29       1.0  0.46411  0.71429  0.25133  1.0000
  O   O30       1.0  0.53785  0.71418  0.25160  1.0000
  H   H30       1.0  0.56844  0.64992  0.25168  1.0000
  H   H31       1.0  0.35207  0.43414  0.25150  1.0000
  O   O31       1.0  0.28791  0.46493  0.25106  1.0000
  O   O32       1.0  0.28803  0.53870  0.25087  1.0000
  H   H32       1.0  0.35230  0.56925  0.25085  1.0000
  Ni  Ni4       1.0  0.50071  0.50144  0.25149  1.0000
  C   C129      1.0  0.03112  0.28197  0.10926  1.0000
  C   C130      1.0  0.02401  0.27474  0.16409  1.0000
  C   C131      1.0  0.04422  0.29482  0.20436  1.0000
  C   C132      1.0  0.07165  0.32220  0.18999  1.0000
  C   C133      1.0  0.07781  0.32847  0.13532  1.0000
  C   C134      1.0  0.05845  0.30929  0.09681  1.0000
  C   C135      1.0  0.07124  0.32215  0.04706  1.0000
  N   N33       1.0  0.09914  0.34993  0.05395  1.0000
  C   C136      1.0  0.10269  0.35332  0.10964  1.0000
  N   N34       1.0  0.12600  0.37645  0.13701  1.0000
  C   C137      1.0  0.14919  0.39970  0.10960  1.0000
  N   N35       1.0  0.15255  0.40322  0.05391  1.0000
  C   C138      1.0  0.18033  0.43112  0.04696  1.0000
  C   C139      1.0  0.19324  0.44390  0.09669  1.0000
  C   C140      1.0  0.17407  0.42458  0.13524  1.0000
  N   N36       1.0  0.15249  0.40324  0.94720  1.0000
  C   C141      1.0  0.18023  0.43118  0.95408  1.0000
  N   N37       1.0  0.19388  0.44493  0.00010  1.0000
  C   C142      1.0  0.19310  0.44396  0.90432  1.0000
  C   C143      1.0  0.17396  0.42456  0.86582  1.0000
  C   C144      1.0  0.14914  0.39965  0.89152  1.0000
  C   C145      1.0  0.18034  0.43079  0.18989  1.0000
  C   C146      1.0  0.20773  0.45823  0.20420  1.0000
  C   C147      1.0  0.22781  0.47838  0.16389  1.0000
  C   C148      1.0  0.22056  0.47124  0.10908  1.0000
  C   C149      1.0  0.18020  0.43072  0.81115  1.0000
  C   C150      1.0  0.20751  0.45822  0.79677  1.0000
  C   C151      1.0  0.22755  0.47847  0.83703  1.0000
  C   C152      1.0  0.22036  0.47135  0.89186  1.0000
  N   N38       1.0  0.09921  0.34983  0.94725  1.0000
  C   C153      1.0  0.10278  0.35315  0.89156  1.0000
  N   N39       1.0  0.12606  0.37629  0.86415  1.0000
  C   C154      1.0  0.07792  0.32827  0.86590  1.0000
  C   C155      1.0  0.05856  0.30912  0.90443  1.0000
  C   C156      1.0  0.07130  0.32206  0.95418  1.0000
  C   C157      1.0  0.03125  0.28177  0.89201  1.0000
  C   C158      1.0  0.02421  0.27447  0.83718  1.0000
  C   C159      1.0  0.04440  0.29454  0.79689  1.0000
  C   C160      1.0  0.07180  0.32196  0.81124  1.0000
  N   N40       1.0  0.05750  0.30849  0.00010  1.0000
  H   H33       1.0  0.01770  0.26864  0.08165  1.0000
  O   O33       1.0  0.00104  0.25178  0.17656  1.0000
  O   O34       1.0  0.03803  0.28856  0.25029  1.0000
  H   H34       1.0  0.08551  0.33597  0.21671  1.0000
  H   H35       1.0  0.16658  0.41696  0.21665  1.0000
  O   O35       1.0  0.21397  0.46448  0.25012  1.0000
  O   O36       1.0  0.25081  0.50133  0.17629  1.0000
  H   H36       1.0  0.23388  0.48463  0.08143  1.0000
  H   H37       1.0  0.16647  0.41683  0.78443  1.0000
  O   O37       1.0  0.21371  0.46444  0.75084  1.0000
  O   O38       1.0  0.25044  0.50150  0.82456  1.0000
  H   H38       1.0  0.23366  0.48479  0.91946  1.0000
  H   H39       1.0  0.01784  0.26846  0.91963  1.0000
  O   O39       1.0  0.00130  0.25144  0.82473  1.0000
  O   O40       1.0  0.03824  0.28824  0.75096  1.0000
  H   H40       1.0  0.08566  0.33572  0.78451  1.0000
  Ni  Ni5       1.0  0.12580  0.37659  0.00010  1.0000
  C   C161      1.0  0.53103  0.22143  0.10917  1.0000
  C   C162      1.0  0.52377  0.22855  0.16399  1.0000
  C   C163      1.0  0.54383  0.20835  0.20429  1.0000
  C   C164      1.0  0.57124  0.18092  0.18996  1.0000
  C   C165      1.0  0.57753  0.17475  0.13531  1.0000
  C   C166      1.0  0.55837  0.19409  0.09677  1.0000
  C   C167      1.0  0.57126  0.18129  0.04704  1.0000
  N   N41       1.0  0.59905  0.15339  0.05397  1.0000
  C   C168      1.0  0.60241  0.14986  0.10966  1.0000
  N   N42       1.0  0.62553  0.12655  0.13707  1.0000
  C   C169      1.0  0.64881  0.10336  0.10971  1.0000
  N   N43       1.0  0.65236  0.09999  0.05402  1.0000
  C   C170      1.0  0.68028  0.07221  0.04712  1.0000
  C   C171      1.0  0.69303  0.05931  0.09687  1.0000
  C   C172      1.0  0.67368  0.07849  0.13539  1.0000
  N   N44       1.0  0.65244  0.10003  0.94731  1.0000
  C   C173      1.0  0.68039  0.07228  0.95424  1.0000
  N   N45       1.0  0.69412  0.05864  0.00010  1.0000
  C   C174      1.0  0.69320  0.05941  0.90450  1.0000
  C   C175      1.0  0.67383  0.07854  0.86597  1.0000
  C   C176      1.0  0.64889  0.10336  0.89162  1.0000
  C   C177      1.0  0.67986  0.07223  0.19005  1.0000
  C   C178      1.0  0.70731  0.04485  0.20440  1.0000
  C   C179      1.0  0.72749  0.02475  0.16412  1.0000
  C   C180      1.0  0.72038  0.03200  0.10930  1.0000
  C   C181      1.0  0.68002  0.07228  0.81131  1.0000
  C   C182      1.0  0.70754  0.04497  0.79697  1.0000
  C   C183      1.0  0.72777  0.02494  0.83726  1.0000
  C   C184      1.0  0.72061  0.03215  0.89208  1.0000
  N   N46       1.0  0.59901  0.15330  0.94727  1.0000
  C   C185      1.0  0.60237  0.14972  0.89158  1.0000
  N   N47       1.0  0.62554  0.12644  0.86421  1.0000
  C   C186      1.0  0.57749  0.17457  0.86589  1.0000
  C   C187      1.0  0.55832  0.19394  0.90439  1.0000
  C   C188      1.0  0.57123  0.18121  0.95415  1.0000
  C   C189      1.0  0.53096  0.22124  0.89191  1.0000
  C   C190      1.0  0.52369  0.22828  0.83707  1.0000
  C   C191      1.0  0.54379  0.20807  0.79682  1.0000
  C   C192      1.0  0.57122  0.18068  0.81122  1.0000
  N   N48       1.0  0.55763  0.19502  0.00010  1.0000
  H   H41       1.0  0.51772  0.23483  0.08153  1.0000
  O   O41       1.0  0.50079  0.25152  0.17641  1.0000
  O   O42       1.0  0.53754  0.21455  0.25021  1.0000
  H   H42       1.0  0.58499  0.16706  0.21671  1.0000
  H   H43       1.0  0.66601  0.08600  0.21679  1.0000
  O   O43       1.0  0.71353  0.03862  0.25033  1.0000
  O   O44       1.0  0.75044  0.00176  0.17657  1.0000
  H   H44       1.0  0.73379  0.01867  0.08168  1.0000
  H   H45       1.0  0.66614  0.08601  0.78457  1.0000
  O   O45       1.0  0.71379  0.03876  0.75105  1.0000
  O   O46       1.0  0.75082  0.00205  0.82483  1.0000
  H   H46       1.0  0.73404  0.01885  0.91971  1.0000
  H   H47       1.0  0.51763  0.23466  0.91951  1.0000
  O   O47       1.0  0.50066  0.25117  0.82459  1.0000
  O   O48       1.0  0.53752  0.21422  0.75088  1.0000
  H   H48       1.0  0.58499  0.16681  0.78451  1.0000
  Ni  Ni6       1.0  0.62576  0.12672  0.00010  1.0000
  C   C193      1.0  0.96986  0.72144  0.89204  1.0000
  C   C194      1.0  0.97711  0.72858  0.83723  1.0000
  C   C195      1.0  0.95708  0.70835  0.79693  1.0000
  C   C196      1.0  0.92973  0.68087  0.81125  1.0000
  C   C197      1.0  0.92345  0.67469  0.86591  1.0000
  C   C198      1.0  0.94258  0.69406  0.90445  1.0000
  C   C199      1.0  0.92972  0.68123  0.95418  1.0000
  N   N49       1.0  0.90198  0.65329  0.94724  1.0000
  C   C200      1.0  0.89863  0.64976  0.89155  1.0000
  N   N50       1.0  0.87555  0.62641  0.86414  1.0000
  C   C201      1.0  0.85233  0.60318  0.89151  1.0000
  N   N51       1.0  0.84878  0.59980  0.94720  1.0000
  C   C202      1.0  0.82092  0.57197  0.95410  1.0000
  C   C203      1.0  0.80819  0.55905  0.90435  1.0000
  C   C204      1.0  0.82750  0.57827  0.86583  1.0000
  N   N52       1.0  0.84871  0.59982  0.05390  1.0000
  C   C205      1.0  0.82082  0.57203  0.04698  1.0000
  N   N53       1.0  0.80711  0.55837  0.00010  1.0000
  C   C206      1.0  0.80804  0.55913  0.09672  1.0000
  C   C207      1.0  0.82738  0.57829  0.13525  1.0000
  C   C208      1.0  0.85226  0.60316  0.10960  1.0000
  C   C209      1.0  0.82132  0.57200  0.81117  1.0000
  C   C210      1.0  0.79393  0.54457  0.79682  1.0000
  C   C211      1.0  0.77379  0.52444  0.83710  1.0000
  C   C212      1.0  0.78090  0.53169  0.89192  1.0000
  C   C213      1.0  0.82120  0.57202  0.18991  1.0000
  C   C214      1.0  0.79374  0.54466  0.20425  1.0000
  C   C215      1.0  0.77354  0.52460  0.16396  1.0000
  C   C216      1.0  0.78068  0.53182  0.10914  1.0000
  N   N54       1.0  0.90204  0.65318  0.05395  1.0000
  C   C217      1.0  0.89869  0.64960  0.10963  1.0000
  N   N55       1.0  0.87557  0.62627  0.13700  1.0000
  C   C218      1.0  0.92352  0.67448  0.13533  1.0000
  C   C219      1.0  0.94265  0.69389  0.09683  1.0000
  C   C220      1.0  0.92976  0.68114  0.04706  1.0000
  C   C221      1.0  0.96996  0.72123  0.10930  1.0000
  C   C222      1.0  0.97722  0.72828  0.16414  1.0000
  C   C223      1.0  0.95716  0.70803  0.20439  1.0000
  C   C224      1.0  0.92979  0.68060  0.19000  1.0000
  N   N56       1.0  0.94333  0.69498  0.00010  1.0000
  H   H49       1.0  0.98315  0.73487  0.91968  1.0000
  O   O49       1.0  0.00010  0.75159  0.82480  1.0000
  O   O50       1.0  0.96335  0.71456  0.75100  1.0000
  H   H50       1.0  0.91600  0.66699  0.78451  1.0000
  H   H51       1.0  0.83514  0.58579  0.78443  1.0000
  O   O51       1.0  0.78772  0.53833  0.75089  1.0000
  O   O52       1.0  0.75089  0.50142  0.82466  1.0000
  H   H52       1.0  0.76752  0.51834  0.91954  1.0000
  H   H53       1.0  0.83506  0.58576  0.21665  1.0000
  O   O53       1.0  0.78751  0.53843  0.25017  1.0000
  O   O54       1.0  0.75055  0.50167  0.17639  1.0000
  H   H54       1.0  0.76728  0.51850  0.08152  1.0000
  H   H55       1.0  0.98326  0.73468  0.08170  1.0000
  O   O55       1.0  0.00010  0.75121  0.17662  1.0000
  O   O56       1.0  0.96342  0.71419  0.25033  1.0000
  H   H56       1.0  0.91604  0.66670  0.21671  1.0000
  Ni  Ni7       1.0  0.87534  0.62657  0.00010  1.0000
  C   C225      1.0  0.28121  0.97113  0.10933  1.0000
  C   C226      1.0  0.27398  0.97824  0.16416  1.0000
  C   C227      1.0  0.29406  0.95803  0.20443  1.0000
  C   C228      1.0  0.32146  0.93059  0.19006  1.0000
  C   C229      1.0  0.32772  0.92444  0.13539  1.0000
  C   C230      1.0  0.30854  0.94379  0.09688  1.0000
  C   C231      1.0  0.32141  0.93100  0.04713  1.0000
  N   N57       1.0  0.34920  0.90310  0.05403  1.0000
  C   C232      1.0  0.35258  0.89956  0.10971  1.0000
  N   N58       1.0  0.37572  0.87624  0.13709  1.0000
  C   C233      1.0  0.39898  0.85305  0.10968  1.0000
  N   N59       1.0  0.40250  0.84969  0.05399  1.0000
  C   C234      1.0  0.43041  0.82191  0.04705  1.0000
  C   C235      1.0  0.44319  0.80900  0.09678  1.0000
  C   C236      1.0  0.42386  0.82817  0.13532  1.0000
  N   N60       1.0  0.40253  0.84976  0.94729  1.0000
  C   C237      1.0  0.43048  0.82201  0.95417  1.0000
  N   N61       1.0  0.44423  0.80836  0.00010  1.0000
  C   C238      1.0  0.44326  0.80915  0.90441  1.0000
  C   C239      1.0  0.42386  0.82829  0.86591  1.0000
  C   C240      1.0  0.39895  0.85311  0.89160  1.0000
  C   C241      1.0  0.43007  0.82190  0.18998  1.0000
  C   C242      1.0  0.45752  0.79451  0.20428  1.0000
  C   C243      1.0  0.47768  0.77442  0.16398  1.0000
  C   C244      1.0  0.47054  0.78168  0.10917  1.0000
  C   C245      1.0  0.43003  0.82204  0.81124  1.0000
  C   C246      1.0  0.45754  0.79474  0.79686  1.0000
  C   C247      1.0  0.47779  0.77470  0.83712  1.0000
  C   C248      1.0  0.47066  0.78189  0.89195  1.0000
  N   N62       1.0  0.34910  0.90303  0.94733  1.0000
  C   C249      1.0  0.35243  0.89947  0.89163  1.0000
  N   N63       1.0  0.37558  0.87619  0.86423  1.0000
  C   C250      1.0  0.32754  0.92433  0.86598  1.0000
  C   C251      1.0  0.30838  0.94369  0.90451  1.0000
  C   C252      1.0  0.32132  0.93094  0.95425  1.0000
  C   C253      1.0  0.28102  0.97100  0.89208  1.0000
  C   C254      1.0  0.27372  0.97805  0.83725  1.0000
  C   C255      1.0  0.29380  0.95785  0.79697  1.0000
  C   C256      1.0  0.32124  0.93045  0.81132  1.0000
  N   N64       1.0  0.30775  0.94475  0.00010  1.0000
  H   H57       1.0  0.26788  0.98454  0.08172  1.0000
  O   O57       1.0  0.25101  0.00120  0.17662  1.0000
  O   O58       1.0  0.28780  0.96421  0.25036  1.0000
  H   H58       1.0  0.33522  0.91673  0.21679  1.0000
  H   H59       1.0  0.41624  0.83566  0.21674  1.0000
  O   O59       1.0  0.46377  0.78826  0.25021  1.0000
  O   O60       1.0  0.50064  0.75143  0.17638  1.0000
  H   H60       1.0  0.48393  0.76836  0.08152  1.0000
  H   H61       1.0  0.41613  0.83578  0.78452  1.0000
  O   O61       1.0  0.46376  0.78853  0.75092  1.0000
  O   O62       1.0  0.50083  0.75180  0.82465  1.0000
  H   H62       1.0  0.48410  0.76858  0.91955  1.0000
  H   H63       1.0  0.26771  0.98441  0.91970  1.0000
  O   O63       1.0  0.25069  0.00010  0.82480  1.0000
  O   O64       1.0  0.28751  0.96401  0.75103  1.0000
  H   H64       1.0  0.33499  0.91659  0.78459  1.0000
  Ni  Ni8       1.0  0.37587  0.87644  0.00010  1.0000
  C   C257      1.0  0.03095  0.72125  0.60928  1.0000
  C   C258      1.0  0.02372  0.72834  0.66412  1.0000
  C   C259      1.0  0.04380  0.70813  0.70438  1.0000
  C   C260      1.0  0.07120  0.68070  0.69001  1.0000
  C   C261      1.0  0.07747  0.67456  0.63534  1.0000
  C   C262      1.0  0.05829  0.69392  0.59683  1.0000
  C   C263      1.0  0.07116  0.68114  0.54708  1.0000
  N   N65       1.0  0.09895  0.65324  0.55396  1.0000
  C   C264      1.0  0.10233  0.64968  0.60965  1.0000
  N   N66       1.0  0.12547  0.62636  0.63702  1.0000
  C   C265      1.0  0.14873  0.60318  0.60960  1.0000
  N   N67       1.0  0.15226  0.59983  0.55391  1.0000
  C   C266      1.0  0.18017  0.57206  0.54696  1.0000
  C   C267      1.0  0.19295  0.55914  0.59669  1.0000
  C   C268      1.0  0.17362  0.57830  0.63524  1.0000
  N   N68       1.0  0.15229  0.59992  0.44721  1.0000
  C   C269      1.0  0.18024  0.57217  0.45408  1.0000
  N   N69       1.0  0.19400  0.55851  0.50051  1.0000
  C   C270      1.0  0.19303  0.55932  0.40432  1.0000
  C   C271      1.0  0.17364  0.57847  0.36582  1.0000
  C   C272      1.0  0.14871  0.60328  0.39152  1.0000
  C   C273      1.0  0.17983  0.57202  0.68989  1.0000
  C   C274      1.0  0.20728  0.54463  0.70419  1.0000
  C   C275      1.0  0.22744  0.52455  0.66388  1.0000
  C   C276      1.0  0.22031  0.53182  0.60907  1.0000
  C   C277      1.0  0.17980  0.57223  0.31115  1.0000
  C   C278      1.0  0.20731  0.54493  0.29677  1.0000
  C   C279      1.0  0.22757  0.52488  0.33702  1.0000
  C   C280      1.0  0.22043  0.53206  0.39185  1.0000
  N   N70       1.0  0.09886  0.65319  0.44726  1.0000
  C   C281      1.0  0.10219  0.64964  0.39157  1.0000
  N   N71       1.0  0.12535  0.62636  0.36416  1.0000
  C   C282      1.0  0.07730  0.67449  0.36592  1.0000
  C   C283      1.0  0.05814  0.69385  0.40445  1.0000
  C   C284      1.0  0.07108  0.68109  0.45419  1.0000
  C   C285      1.0  0.03078  0.72115  0.39203  1.0000
  C   C286      1.0  0.02348  0.72821  0.33720  1.0000
  C   C287      1.0  0.04356  0.70802  0.29692  1.0000
  C   C288      1.0  0.07100  0.68063  0.31126  1.0000
  N   N72       1.0  0.05750  0.69489  0.50065  1.0000
  H   H65       1.0  0.01763  0.73466  0.58167  1.0000
  O   O65       1.0  0.00010  0.75130  0.67658  1.0000
  O   O66       1.0  0.03754  0.71430  0.75032  1.0000
  H   H66       1.0  0.08497  0.66683  0.71672  1.0000
  H   H67       1.0  0.16599  0.58577  0.71666  1.0000
  O   O67       1.0  0.21353  0.53837  0.75011  1.0000
  O   O68       1.0  0.25040  0.50156  0.67628  1.0000
  H   H68       1.0  0.23370  0.51850  0.58142  1.0000
  H   H69       1.0  0.16591  0.58597  0.28444  1.0000
  O   O69       1.0  0.21354  0.53873  0.25083  1.0000
  O   O70       1.0  0.25061  0.50200  0.32454  1.0000
  H   H70       1.0  0.23388  0.51875  0.41945  1.0000
  H   H71       1.0  0.01746  0.73457  0.41965  1.0000
  O   O71       1.0  0.00010  0.75112  0.32476  1.0000
  O   O72       1.0  0.03727  0.71419  0.25099  1.0000
  H   H72       1.0  0.08476  0.66677  0.28453  1.0000
  Ni  Ni9       1.0  0.12563  0.62659  0.50059  1.0000
  C   C289      1.0  0.28078  0.03178  0.60933  1.0000
  C   C290      1.0  0.27368  0.02454  0.66416  1.0000
  C   C291      1.0  0.29390  0.04461  0.70442  1.0000
  C   C292      1.0  0.32133  0.07199  0.69006  1.0000
  C   C293      1.0  0.32748  0.07827  0.63539  1.0000
  C   C294      1.0  0.30812  0.05910  0.59688  1.0000
  C   C295      1.0  0.32090  0.07197  0.54713  1.0000
  N   N73       1.0  0.34880  0.09974  0.55402  1.0000
  C   C296      1.0  0.35236  0.10312  0.60970  1.0000
  N   N74       1.0  0.37568  0.12625  0.63708  1.0000
  C   C297      1.0  0.39886  0.14950  0.60967  1.0000
  N   N75       1.0  0.40221  0.15303  0.55398  1.0000
  C   C298      1.0  0.42999  0.18093  0.54704  1.0000
  C   C299      1.0  0.44291  0.19370  0.59676  1.0000
  C   C300      1.0  0.42375  0.17437  0.63531  1.0000
  N   N76       1.0  0.40213  0.15307  0.44727  1.0000
  C   C301      1.0  0.42988  0.18101  0.45415  1.0000
  N   N77       1.0  0.44354  0.19475  0.50058  1.0000
  C   C302      1.0  0.44274  0.19380  0.40439  1.0000
  C   C303      1.0  0.42359  0.17441  0.36589  1.0000
  C   C304      1.0  0.39877  0.14950  0.39159  1.0000
  C   C305      1.0  0.43003  0.18057  0.68997  1.0000
  C   C306      1.0  0.45742  0.20801  0.70427  1.0000
  C   C307      1.0  0.47750  0.22817  0.66396  1.0000
  C   C308      1.0  0.47024  0.22104  0.60915  1.0000
  C   C309      1.0  0.42982  0.18058  0.31122  1.0000
  C   C310      1.0  0.45713  0.20808  0.29684  1.0000
  C   C311      1.0  0.47717  0.22832  0.33710  1.0000
  C   C312      1.0  0.46999  0.22119  0.39193  1.0000
  N   N78       1.0  0.34885  0.09966  0.44732  1.0000
  C   C313      1.0  0.35241  0.10300  0.39163  1.0000
  N   N79       1.0  0.37568  0.12614  0.36422  1.0000
  C   C314      1.0  0.32755  0.07812  0.36597  1.0000
  C   C315      1.0  0.30819  0.05897  0.40450  1.0000
  C   C316      1.0  0.32094  0.07189  0.45424  1.0000
  C   C317      1.0  0.28088  0.03162  0.39207  1.0000
  C   C318      1.0  0.27382  0.02433  0.33724  1.0000
  C   C319      1.0  0.29401  0.04441  0.29696  1.0000
  C   C320      1.0  0.32141  0.07183  0.31131  1.0000
  N   N80       1.0  0.30715  0.05832  0.50070  1.0000
  H   H73       1.0  0.26737  0.01846  0.58171  1.0000
  O   O73       1.0  0.25072  0.00158  0.67662  1.0000
  O   O74       1.0  0.28772  0.03834  0.75036  1.0000
  H   H74       1.0  0.33520  0.08575  0.71678  1.0000
  H   H75       1.0  0.41627  0.16674  0.71672  1.0000
  O   O75       1.0  0.46368  0.21425  0.75019  1.0000
  O   O76       1.0  0.50050  0.25111  0.67637  1.0000
  H   H76       1.0  0.48355  0.23443  0.58150  1.0000
  H   H77       1.0  0.41608  0.16669  0.28450  1.0000
  O   O77       1.0  0.46332  0.21431  0.25091  1.0000
  O   O78       1.0  0.50007  0.25135  0.32463  1.0000
  H   H78       1.0  0.48331  0.23462  0.41953  1.0000
  H   H79       1.0  0.26747  0.01830  0.41969  1.0000
  O   O79       1.0  0.25092  0.00131  0.32480  1.0000
  O   O80       1.0  0.28785  0.03812  0.25103  1.0000
  H   H80       1.0  0.33527  0.08559  0.28458  1.0000
  Ni  Ni10      1.0  0.37546  0.12642  0.50065  1.0000
  C   C321      1.0  0.78132  0.47131  0.60914  1.0000
  C   C322      1.0  0.77406  0.47844  0.66397  1.0000
  C   C323      1.0  0.79413  0.45824  0.70426  1.0000
  C   C324      1.0  0.82153  0.43080  0.68993  1.0000
  C   C325      1.0  0.82782  0.42463  0.63527  1.0000
  C   C326      1.0  0.80865  0.44397  0.59673  1.0000
  C   C327      1.0  0.82154  0.43117  0.54700  1.0000
  N   N81       1.0  0.84932  0.40327  0.55393  1.0000
  C   C328      1.0  0.85269  0.39974  0.60962  1.0000
  N   N82       1.0  0.87582  0.37643  0.63703  1.0000
  C   C329      1.0  0.89908  0.35324  0.60966  1.0000
  N   N83       1.0  0.90263  0.34986  0.55397  1.0000
  C   C330      1.0  0.93054  0.32208  0.54707  1.0000
  C   C331      1.0  0.94330  0.30918  0.59681  1.0000
  C   C332      1.0  0.92396  0.32836  0.63533  1.0000
  N   N84       1.0  0.90269  0.34989  0.44726  1.0000
  C   C333      1.0  0.93064  0.32214  0.45418  1.0000
  N   N85       1.0  0.94438  0.30850  0.50063  1.0000
  C   C334      1.0  0.94344  0.30926  0.40444  1.0000
  C   C335      1.0  0.92406  0.32839  0.36591  1.0000
  C   C336      1.0  0.89913  0.35322  0.39157  1.0000
  C   C337      1.0  0.93015  0.32211  0.69000  1.0000
  C   C338      1.0  0.95760  0.29472  0.70434  1.0000
  C   C339      1.0  0.97777  0.27462  0.66406  1.0000
  C   C340      1.0  0.97065  0.28186  0.60924  1.0000
  C   C341      1.0  0.93024  0.32213  0.31125  1.0000
  C   C342      1.0  0.95776  0.29482  0.29691  1.0000
  C   C343      1.0  0.97800  0.27479  0.33720  1.0000
  C   C344      1.0  0.97085  0.28200  0.39202  1.0000
  N   N86       1.0  0.84927  0.40316  0.44723  1.0000
  C   C345      1.0  0.85262  0.39958  0.39155  1.0000
  N   N87       1.0  0.87578  0.37629  0.36417  1.0000
  C   C346      1.0  0.82773  0.42443  0.36586  1.0000
  C   C347      1.0  0.80857  0.44381  0.40436  1.0000
  C   C348      1.0  0.82148  0.43108  0.45412  1.0000
  C   C349      1.0  0.78121  0.47111  0.39189  1.0000
  C   C350      1.0  0.77393  0.47814  0.33705  1.0000
  C   C351      1.0  0.79402  0.45793  0.29680  1.0000
  C   C352      1.0  0.82145  0.43054  0.31118  1.0000
  N   N88       1.0  0.80790  0.44490  0.50055  1.0000
  H   H81       1.0  0.76800  0.48472  0.58151  1.0000
  O   O81       1.0  0.75109  0.50140  0.67640  1.0000
  O   O82       1.0  0.78786  0.46444  0.75019  1.0000
  H   H82       1.0  0.83529  0.41694  0.71667  1.0000
  H   H83       1.0  0.91631  0.33588  0.71674  1.0000
  O   O83       1.0  0.96383  0.28849  0.75027  1.0000
  O   O84       1.0  0.00010  0.25163  0.67650  1.0000
  H   H84       1.0  0.98405  0.26854  0.58161  1.0000
  H   H85       1.0  0.91636  0.33586  0.28451  1.0000
  O   O85       1.0  0.96400  0.28860  0.25098  1.0000
  O   O86       1.0  0.00104  0.25190  0.32476  1.0000
  H   H86       1.0  0.98428  0.26870  0.41964  1.0000
  H   H87       1.0  0.76788  0.48453  0.41949  1.0000
  O   O87       1.0  0.75090  0.50104  0.32457  1.0000
  O   O88       1.0  0.78774  0.46407  0.25086  1.0000
  H   H88       1.0  0.83522  0.41667  0.28447  1.0000
  Ni  Ni11      1.0  0.87602  0.37659  0.50060  1.0000
  C   C353      1.0  0.53093  0.78206  0.60919  1.0000
  C   C354      1.0  0.52380  0.77480  0.66401  1.0000
  C   C355      1.0  0.54400  0.79486  0.70430  1.0000
  C   C356      1.0  0.57143  0.82226  0.68998  1.0000
  C   C357      1.0  0.57761  0.82855  0.63532  1.0000
  C   C358      1.0  0.55827  0.80939  0.59678  1.0000
  C   C359      1.0  0.57107  0.82227  0.54705  1.0000
  N   N89       1.0  0.59897  0.85005  0.55398  1.0000
  C   C360      1.0  0.60250  0.85341  0.60968  1.0000
  N   N90       1.0  0.62581  0.87653  0.63708  1.0000
  C   C361      1.0  0.64900  0.89979  0.60971  1.0000
  N   N91       1.0  0.65238  0.90333  0.55402  1.0000
  C   C362      1.0  0.68016  0.93124  0.54713  1.0000
  C   C363      1.0  0.69305  0.94400  0.59687  1.0000
  C   C364      1.0  0.67387  0.92466  0.63539  1.0000
  N   N92       1.0  0.65235  0.90340  0.44732  1.0000
  C   C365      1.0  0.68010  0.93134  0.45424  1.0000
  N   N93       1.0  0.69373  0.94508  0.50070  1.0000
  C   C366      1.0  0.69298  0.94414  0.40451  1.0000
  C   C367      1.0  0.67385  0.92477  0.36597  1.0000
  C   C368      1.0  0.64903  0.89985  0.39163  1.0000
  C   C369      1.0  0.68012  0.93084  0.69006  1.0000
  C   C370      1.0  0.70751  0.95828  0.70440  1.0000
  C   C371      1.0  0.72761  0.97845  0.66412  1.0000
  C   C372      1.0  0.72037  0.97134  0.60930  1.0000
  C   C373      1.0  0.68012  0.93095  0.31131  1.0000
  C   C374      1.0  0.70743  0.95846  0.29698  1.0000
  C   C375      1.0  0.72745  0.97869  0.33727  1.0000
  C   C376      1.0  0.72024  0.97154  0.39208  1.0000
  N   N94       1.0  0.59908  0.84999  0.44728  1.0000
  C   C377      1.0  0.60266  0.85334  0.39160  1.0000
  N   N95       1.0  0.62595  0.87650  0.36422  1.0000
  C   C378      1.0  0.57782  0.82847  0.36590  1.0000
  C   C379      1.0  0.55844  0.80931  0.40440  1.0000
  C   C380      1.0  0.57117  0.82222  0.45416  1.0000
  C   C381      1.0  0.53114  0.78196  0.39193  1.0000
  C   C382      1.0  0.52411  0.77468  0.33709  1.0000
  C   C383      1.0  0.54432  0.79477  0.29684  1.0000
  C   C384      1.0  0.57171  0.82219  0.31123  1.0000
  N   N96       1.0  0.55735  0.80863  0.50060  1.0000
  H   H89       1.0  0.51753  0.76875  0.58155  1.0000
  O   O89       1.0  0.50083  0.75184  0.67643  1.0000
  O   O90       1.0  0.53779  0.78859  0.75023  1.0000
  H   H90       1.0  0.58529  0.83601  0.71672  1.0000
  H   H91       1.0  0.66635  0.91700  0.71680  1.0000
  O   O91       1.0  0.71373  0.96451  0.75033  1.0000
  O   O92       1.0  0.75059  0.00139  0.67657  1.0000
  H   H92       1.0  0.73370  0.98473  0.58168  1.0000
  H   H93       1.0  0.66639  0.91707  0.28458  1.0000
  O   O93       1.0  0.71365  0.96470  0.25105  1.0000
  O   O94       1.0  0.75035  0.00172  0.32483  1.0000
  H   H94       1.0  0.73354  0.98497  0.41971  1.0000
  H   H95       1.0  0.51771  0.76863  0.41953  1.0000
  O   O95       1.0  0.50121  0.75166  0.32461  1.0000
  O   O96       1.0  0.53818  0.78850  0.25090  1.0000
  H   H96       1.0  0.58559  0.83595  0.28452  1.0000
  Ni  Ni12      1.0  0.62565  0.87673  0.50066  1.0000
