data_image0
_chemical_formula_structural       Fe16C7NCNCNC3NCNC11NCNC7NHO2H2O2H2O2H2O2HNiC7NCNCNC3NCNC11NCNC7NHO2H2O2H2O2H2O2HNiC7NCNCNC3NCNC11NCNC7NHO2H2O2H2O2H2O2HNiC7NCNCNC3NCNC11NCNC7NHO2H2O2H2O2H2O2HNiC7NCNCNC3NCNC11NCNC7NHO2H2O2H2O2H2O2HNiC7NCNCNC3NCNC11NCNC7NHO2H2O2H2O2H2O2HNiC7NCNCNC3NCNC11NCNC7NHO2H2O2H2O2H2O2HNiC7NCNCNC3NCNC11NCNC7NHO2H2O2H2O2H2O2HNiC7NCNCNC3NCNC11NCNC7NHO2H2O2H2O2H2O2HNiC7NCNCNC3NCNC11NCNC7NHO2H2O2H2O2H2O2HNiC7NCNCNC3NCNC11NCNC7NHO2H2O2H2O2H2O2HNiC7NCNCNC3NCNC11NCNC7NHO2H2O2H2O2H2O2HNi
_chemical_formula_sum              "Fe16 C384 N96 H96 O96 Ni12"
_cell_length_a       38.6373
_cell_length_b       38.6293
_cell_length_c       27.3167
_cell_angle_alpha    89.9985
_cell_angle_beta     90.0012
_cell_angle_gamma    90.0085

_space_group_name_H-M_alt    "P 1"
_space_group_IT_number       1

loop_
  _space_group_symop_operation_xyz
  'x, y, z'

loop_
  _atom_site_type_symbol
  _atom_site_label
  _atom_site_symmetry_multiplicity
  _atom_site_fract_x
  _atom_site_fract_y
  _atom_site_fract_z
  _atom_site_occupancy
  Fe  Fe1       1.0  0.00010  0.25212  0.25045  1.0000
  Fe  Fe2       1.0  0.75064  0.00230  0.25039  1.0000
  Fe  Fe3       1.0  0.00010  0.75208  0.25042  1.0000
  Fe  Fe4       1.0  0.25058  0.00192  0.25038  1.0000
  Fe  Fe5       1.0  0.00010  0.75209  0.75038  1.0000
  Fe  Fe6       1.0  0.25057  0.00178  0.75039  1.0000
  Fe  Fe7       1.0  0.00010  0.25213  0.75043  1.0000
  Fe  Fe8       1.0  0.75061  0.00251  0.75036  1.0000
  Fe  Fe9       1.0  0.50102  0.75213  0.75062  1.0000
  Fe  Fe10      1.0  0.25065  0.50252  0.75066  1.0000
  Fe  Fe11      1.0  0.50026  0.25208  0.75056  1.0000
  Fe  Fe12      1.0  0.75059  0.50174  0.75061  1.0000
  Fe  Fe13      1.0  0.50043  0.25210  0.25053  1.0000
  Fe  Fe14      1.0  0.75055  0.50197  0.25063  1.0000
  Fe  Fe15      1.0  0.50072  0.75213  0.25060  1.0000
  Fe  Fe16      1.0  0.25060  0.50230  0.25063  1.0000
  C   C1        1.0  0.04088  0.85306  0.24989  1.0000
  C   C2        1.0  0.02062  0.81848  0.25001  1.0000
  C   C3        1.0  0.98035  0.81851  0.25018  1.0000
  C   C4        1.0  0.96014  0.85311  0.25027  1.0000
  C   C5        1.0  0.98127  0.88665  0.25017  1.0000
  C   C6        1.0  0.01979  0.88663  0.24995  1.0000
  C   C7        1.0  0.03185  0.92433  0.24989  1.0000
  N   N1        1.0  0.00010  0.94874  0.25006  1.0000
  C   C8        1.0  0.96926  0.92437  0.25023  1.0000
  N   N2        1.0  0.93236  0.93392  0.25047  1.0000
  C   C9        1.0  0.92286  0.97084  0.25044  1.0000
  N   N3        1.0  0.94727  0.00213  0.25027  1.0000
  C   C10       1.0  0.92291  0.03345  0.25020  1.0000
  C   C11       1.0  0.88520  0.02144  0.25036  1.0000
  C   C12       1.0  0.88516  0.98292  0.25049  1.0000
  N   N4        1.0  0.00010  0.05545  0.25017  1.0000
  C   C13       1.0  0.96938  0.07987  0.25003  1.0000
  N   N5        1.0  0.93246  0.07036  0.24995  1.0000
  C   C14       1.0  0.98145  0.11757  0.25013  1.0000
  C   C15       1.0  0.01997  0.11754  0.25033  1.0000
  C   C16       1.0  0.03197  0.07982  0.25039  1.0000
  C   C17       1.0  0.85159  0.96184  0.25057  1.0000
  C   C18       1.0  0.81703  0.98212  0.25056  1.0000
  C   C19       1.0  0.81708  0.02240  0.25053  1.0000
  C   C20       1.0  0.85169  0.04259  0.25039  1.0000
  C   C21       1.0  0.04111  0.15107  0.25042  1.0000
  C   C22       1.0  0.02091  0.18568  0.25027  1.0000
  C   C23       1.0  0.98064  0.18570  0.25010  1.0000
  C   C24       1.0  0.96037  0.15113  0.25004  1.0000
  N   N6        1.0  0.05395  0.00206  0.25021  1.0000
  C   C25       1.0  0.07836  0.03335  0.25045  1.0000
  N   N7        1.0  0.06887  0.07027  0.25062  1.0000
  C   C26       1.0  0.11605  0.02129  0.25043  1.0000
  C   C27       1.0  0.11603  0.98277  0.25019  1.0000
  C   C28       1.0  0.07832  0.97075  0.25003  1.0000
  C   C29       1.0  0.14957  0.96164  0.25019  1.0000
  C   C30       1.0  0.18416  0.98187  0.25041  1.0000
  C   C31       1.0  0.18418  0.02215  0.25057  1.0000
  C   C32       1.0  0.14960  0.04240  0.25059  1.0000
  N   N8        1.0  0.06877  0.93384  0.24977  1.0000
  H   H1        1.0  0.06805  0.85350  0.24977  1.0000
  O   O1        1.0  0.03734  0.78928  0.24997  1.0000
  O   O2        1.0  0.96360  0.78932  0.25025  1.0000
  H   H2        1.0  0.93297  0.85357  0.25040  1.0000
  H   H3        1.0  0.85200  0.93466  0.25061  1.0000
  O   O3        1.0  0.78782  0.96541  0.25058  1.0000
  O   O4        1.0  0.78792  0.03917  0.25061  1.0000
  H   H4        1.0  0.85216  0.06977  0.25034  1.0000
  H   H5        1.0  0.06828  0.15061  0.25055  1.0000
  O   O5        1.0  0.03767  0.21486  0.25026  1.0000
  O   O6        1.0  0.96392  0.21491  0.25000  1.0000
  H   H6        1.0  0.93320  0.15072  0.24993  1.0000
  H   H7        1.0  0.14911  0.93446  0.25006  1.0000
  O   O7        1.0  0.21334  0.96512  0.25049  1.0000
  O   O8        1.0  0.21337  0.03888  0.25068  1.0000
  H   H8        1.0  0.14917  0.06958  0.25072  1.0000
  Ni  Ni1       1.0  0.00010  0.00209  0.25009  1.0000
  C   C33       1.0  0.04074  0.85305  0.75015  1.0000
  C   C34       1.0  0.02046  0.81848  0.75027  1.0000
  C   C35       1.0  0.98019  0.81854  0.75044  1.0000
  C   C36       1.0  0.96000  0.85315  0.75052  1.0000
  C   C37       1.0  0.98116  0.88668  0.75042  1.0000
  C   C38       1.0  0.01968  0.88663  0.75021  1.0000
  C   C39       1.0  0.03177  0.92432  0.75015  1.0000
  N   N9        1.0  0.00010  0.94875  0.75032  1.0000
  C   C40       1.0  0.96918  0.92440  0.75049  1.0000
  N   N10       1.0  0.93228  0.93398  0.75072  1.0000
  C   C41       1.0  0.92280  0.97092  0.75069  1.0000
  N   N11       1.0  0.94724  0.00218  0.75053  1.0000
  C   C42       1.0  0.92291  0.03352  0.75045  1.0000
  C   C43       1.0  0.88519  0.02154  0.75061  1.0000
  C   C44       1.0  0.88512  0.98302  0.75074  1.0000
  N   N12       1.0  0.00010  0.05546  0.75043  1.0000
  C   C45       1.0  0.96941  0.07990  0.75029  1.0000
  N   N13       1.0  0.93249  0.07043  0.75021  1.0000
  C   C46       1.0  0.98151  0.11759  0.75039  1.0000
  C   C47       1.0  0.02002  0.11754  0.75060  1.0000
  C   C48       1.0  0.03200  0.07981  0.75065  1.0000
  C   C49       1.0  0.85153  0.96196  0.75081  1.0000
  C   C50       1.0  0.81699  0.98227  0.75081  1.0000
  C   C51       1.0  0.81707  0.02254  0.75077  1.0000
  C   C52       1.0  0.85169  0.04272  0.75064  1.0000
  C   C53       1.0  0.04119  0.15106  0.75069  1.0000
  C   C54       1.0  0.02101  0.18568  0.75054  1.0000
  C   C55       1.0  0.98074  0.18573  0.75037  1.0000
  C   C56       1.0  0.96045  0.15118  0.75030  1.0000
  N   N14       1.0  0.05393  0.00204  0.75048  1.0000
  C   C57       1.0  0.07836  0.03331  0.75071  1.0000
  N   N15       1.0  0.06889  0.07023  0.75089  1.0000
  C   C58       1.0  0.11604  0.02122  0.75070  1.0000
  C   C59       1.0  0.11599  0.98270  0.75046  1.0000
  C   C60       1.0  0.07827  0.97071  0.75029  1.0000
  C   C61       1.0  0.14951  0.96155  0.75046  1.0000
  C   C62       1.0  0.18412  0.98175  0.75069  1.0000
  C   C63       1.0  0.18416  0.02203  0.75085  1.0000
  C   C64       1.0  0.14960  0.04231  0.75086  1.0000
  N   N16       1.0  0.06869  0.93380  0.75003  1.0000
  H   H9        1.0  0.06792  0.85346  0.75004  1.0000
  O   O9        1.0  0.03716  0.78927  0.75022  1.0000
  O   O10       1.0  0.96341  0.78936  0.75050  1.0000
  H   H10       1.0  0.93283  0.85364  0.75065  1.0000
  H   H11       1.0  0.85192  0.93478  0.75086  1.0000
  O   O11       1.0  0.78777  0.96558  0.75082  1.0000
  O   O12       1.0  0.78791  0.03934  0.75086  1.0000
  H   H12       1.0  0.85219  0.06989  0.75059  1.0000
  H   H13       1.0  0.06836  0.15057  0.75082  1.0000
  O   O13       1.0  0.03780  0.21484  0.75053  1.0000
  O   O14       1.0  0.96405  0.21495  0.75027  1.0000
  H   H14       1.0  0.93328  0.15078  0.75019  1.0000
  H   H15       1.0  0.14903  0.93437  0.75033  1.0000
  O   O15       1.0  0.21328  0.96498  0.75077  1.0000
  O   O16       1.0  0.21337  0.03874  0.75096  1.0000
  H   H16       1.0  0.14919  0.06948  0.75099  1.0000
  Ni  Ni2       1.0  0.00010  0.00210  0.75036  1.0000
  C   C65       1.0  0.54076  0.35304  0.74907  1.0000
  C   C66       1.0  0.52048  0.31847  0.74919  1.0000
  C   C67       1.0  0.48021  0.31853  0.74937  1.0000
  C   C68       1.0  0.46002  0.35315  0.74946  1.0000
  C   C69       1.0  0.48118  0.38667  0.74936  1.0000
  C   C70       1.0  0.51970  0.38662  0.74914  1.0000
  C   C71       1.0  0.53179  0.42431  0.74908  1.0000
  N   N17       1.0  0.50054  0.44874  0.74925  1.0000
  C   C72       1.0  0.46920  0.42440  0.74943  1.0000
  N   N18       1.0  0.43231  0.43398  0.74966  1.0000
  C   C73       1.0  0.42284  0.47091  0.74964  1.0000
  N   N19       1.0  0.44728  0.50218  0.74947  1.0000
  C   C74       1.0  0.42294  0.53352  0.74940  1.0000
  C   C75       1.0  0.38523  0.52154  0.74956  1.0000
  C   C76       1.0  0.38515  0.48302  0.74969  1.0000
  N   N20       1.0  0.50070  0.55546  0.74937  1.0000
  C   C77       1.0  0.46945  0.57990  0.74923  1.0000
  N   N21       1.0  0.43253  0.57043  0.74916  1.0000
  C   C78       1.0  0.48155  0.61759  0.74933  1.0000
  C   C79       1.0  0.52007  0.61753  0.74953  1.0000
  C   C80       1.0  0.53204  0.57980  0.74958  1.0000
  C   C81       1.0  0.35156  0.46197  0.74977  1.0000
  C   C82       1.0  0.31702  0.48227  0.74977  1.0000
  C   C83       1.0  0.31710  0.52255  0.74974  1.0000
  C   C84       1.0  0.35173  0.54272  0.74960  1.0000
  C   C85       1.0  0.54124  0.65105  0.74962  1.0000
  C   C86       1.0  0.52106  0.68567  0.74948  1.0000
  C   C87       1.0  0.48079  0.68573  0.74931  1.0000
  C   C88       1.0  0.46050  0.65117  0.74924  1.0000
  N   N22       1.0  0.55396  0.50202  0.74940  1.0000
  C   C89       1.0  0.57840  0.53329  0.74964  1.0000
  N   N23       1.0  0.56893  0.57022  0.74981  1.0000
  C   C90       1.0  0.61607  0.52120  0.74962  1.0000
  C   C91       1.0  0.61602  0.48268  0.74937  1.0000
  C   C92       1.0  0.57830  0.47069  0.74921  1.0000
  C   C93       1.0  0.64954  0.46152  0.74937  1.0000
  C   C94       1.0  0.68415  0.48173  0.74959  1.0000
  C   C95       1.0  0.68420  0.52201  0.74975  1.0000
  C   C96       1.0  0.64964  0.54229  0.74977  1.0000
  N   N24       1.0  0.56871  0.43379  0.74895  1.0000
  H   H17       1.0  0.56794  0.35345  0.74895  1.0000
  O   O17       1.0  0.53717  0.28926  0.74914  1.0000
  O   O18       1.0  0.46343  0.28936  0.74944  1.0000
  H   H18       1.0  0.43285  0.35363  0.74959  1.0000
  H   H19       1.0  0.35195  0.43479  0.74982  1.0000
  O   O19       1.0  0.28780  0.46559  0.74979  1.0000
  O   O20       1.0  0.28795  0.53935  0.74983  1.0000
  H   H20       1.0  0.35223  0.56990  0.74955  1.0000
  H   H21       1.0  0.56841  0.65056  0.74975  1.0000
  O   O21       1.0  0.53785  0.71483  0.74946  1.0000
  O   O22       1.0  0.46410  0.71495  0.74921  1.0000
  H   H22       1.0  0.43333  0.65078  0.74914  1.0000
  H   H23       1.0  0.64906  0.43435  0.74924  1.0000
  O   O23       1.0  0.71331  0.46495  0.74967  1.0000
  O   O24       1.0  0.71341  0.53872  0.74986  1.0000
  H   H24       1.0  0.64923  0.56946  0.74990  1.0000
  Ni  Ni3       1.0  0.50062  0.50210  0.74929  1.0000
  C   C97       1.0  0.54086  0.35309  0.25094  1.0000
  C   C98       1.0  0.52060  0.31851  0.25105  1.0000
  C   C99       1.0  0.48033  0.31852  0.25123  1.0000
  C   C100      1.0  0.46011  0.35313  0.25132  1.0000
  C   C101      1.0  0.48125  0.38667  0.25122  1.0000
  C   C102      1.0  0.51976  0.38665  0.25100  1.0000
  C   C103      1.0  0.53182  0.42435  0.25095  1.0000
  N   N25       1.0  0.50054  0.44876  0.25112  1.0000
  C   C104      1.0  0.46923  0.42438  0.25129  1.0000
  N   N26       1.0  0.43232  0.43393  0.25152  1.0000
  C   C105      1.0  0.42282  0.47086  0.25149  1.0000
  N   N27       1.0  0.44723  0.50214  0.25133  1.0000
  C   C106      1.0  0.42287  0.53346  0.25126  1.0000
  C   C107      1.0  0.38517  0.52145  0.25142  1.0000
  C   C108      1.0  0.38513  0.48293  0.25154  1.0000
  N   N28       1.0  0.50061  0.55547  0.25123  1.0000
  C   C109      1.0  0.46934  0.57988  0.25109  1.0000
  N   N29       1.0  0.43242  0.57038  0.25102  1.0000
  C   C110      1.0  0.48140  0.61758  0.25119  1.0000
  C   C111      1.0  0.51992  0.61756  0.25140  1.0000
  C   C112      1.0  0.53192  0.57984  0.25145  1.0000
  C   C113      1.0  0.35156  0.46185  0.25162  1.0000
  C   C114      1.0  0.31700  0.48212  0.25162  1.0000
  C   C115      1.0  0.31704  0.52240  0.25158  1.0000
  C   C116      1.0  0.35165  0.54260  0.25145  1.0000
  C   C117      1.0  0.54106  0.65110  0.25149  1.0000
  C   C118      1.0  0.52085  0.68570  0.25135  1.0000
  C   C119      1.0  0.48058  0.68572  0.25118  1.0000
  C   C120      1.0  0.46032  0.65115  0.25111  1.0000
  N   N30       1.0  0.55392  0.50209  0.25127  1.0000
  C   C121      1.0  0.57832  0.53338  0.25151  1.0000
  N   N31       1.0  0.56883  0.57030  0.25169  1.0000
  C   C122      1.0  0.61601  0.52132  0.25149  1.0000
  C   C123      1.0  0.61600  0.48280  0.25125  1.0000
  C   C124      1.0  0.57828  0.47078  0.25109  1.0000
  C   C125      1.0  0.64953  0.46168  0.25125  1.0000
  C   C126      1.0  0.68412  0.48191  0.25148  1.0000
  C   C127      1.0  0.68414  0.52219  0.25163  1.0000
  C   C128      1.0  0.64956  0.54244  0.25165  1.0000
  N   N32       1.0  0.56873  0.43386  0.25083  1.0000
  H   H25       1.0  0.56803  0.35352  0.25082  1.0000
  O   O25       1.0  0.53733  0.28931  0.25101  1.0000
  O   O26       1.0  0.46358  0.28934  0.25129  1.0000
  H   H26       1.0  0.43294  0.35359  0.25145  1.0000
  H   H27       1.0  0.35197  0.43467  0.25167  1.0000
  O   O27       1.0  0.28779  0.46541  0.25163  1.0000
  O   O28       1.0  0.28787  0.53917  0.25167  1.0000
  H   H28       1.0  0.35212  0.56978  0.25140  1.0000
  H   H29       1.0  0.56823  0.65064  0.25163  1.0000
  O   O29       1.0  0.53761  0.71488  0.25134  1.0000
  O   O30       1.0  0.46387  0.71493  0.25108  1.0000
  H   H30       1.0  0.43315  0.65073  0.25100  1.0000
  H   H31       1.0  0.64908  0.43450  0.25112  1.0000
  O   O31       1.0  0.71330  0.46516  0.25156  1.0000
  O   O32       1.0  0.71333  0.53892  0.25175  1.0000
  H   H32       1.0  0.64912  0.56961  0.25179  1.0000
  Ni  Ni4       1.0  0.50058  0.50211  0.25115  1.0000
  C   C129      1.0  0.03158  0.28208  0.89183  1.0000
  C   C130      1.0  0.02436  0.27496  0.83700  1.0000
  C   C131      1.0  0.04440  0.29522  0.79674  1.0000
  C   C132      1.0  0.07174  0.32270  0.81111  1.0000
  C   C133      1.0  0.07800  0.32887  0.86577  1.0000
  C   C134      1.0  0.05886  0.30947  0.90428  1.0000
  C   C135      1.0  0.07170  0.32228  0.95403  1.0000
  N   N33       1.0  0.09944  0.35024  0.94714  1.0000
  C   C136      1.0  0.10281  0.35379  0.89146  1.0000
  N   N34       1.0  0.12590  0.37716  0.86408  1.0000
  C   C137      1.0  0.14911  0.40039  0.89149  1.0000
  N   N35       1.0  0.15263  0.40375  0.94718  1.0000
  C   C138      1.0  0.18049  0.43158  0.95412  1.0000
  C   C139      1.0  0.19324  0.44453  0.90440  1.0000
  C   C140      1.0  0.17394  0.42532  0.86585  1.0000
  N   N36       1.0  0.15267  0.40367  0.05388  1.0000
  C   C141      1.0  0.18056  0.43148  0.04701  1.0000
  N   N37       1.0  0.19428  0.44516  0.00010  1.0000
  C   C142      1.0  0.19332  0.44436  0.09676  1.0000
  C   C143      1.0  0.17397  0.42517  0.13526  1.0000
  C   C144      1.0  0.14910  0.40031  0.10957  1.0000
  C   C145      1.0  0.18014  0.43162  0.81119  1.0000
  C   C146      1.0  0.20753  0.45906  0.79689  1.0000
  C   C147      1.0  0.22765  0.47919  0.83720  1.0000
  C   C148      1.0  0.22053  0.47191  0.89201  1.0000
  C   C149      1.0  0.18012  0.43143  0.18993  1.0000
  C   C150      1.0  0.20758  0.45879  0.20431  1.0000
  C   C151      1.0  0.22779  0.47887  0.16406  1.0000
  C   C152      1.0  0.22067  0.47168  0.10923  1.0000
  N   N38       1.0  0.09935  0.35029  0.05384  1.0000
  C   C153      1.0  0.10268  0.35385  0.10953  1.0000
  N   N39       1.0  0.12578  0.37718  0.13694  1.0000
  C   C154      1.0  0.07784  0.32895  0.13519  1.0000
  C   C155      1.0  0.05872  0.30955  0.09666  1.0000
  C   C156      1.0  0.07163  0.32233  0.04692  1.0000
  C   C157      1.0  0.03141  0.28219  0.10909  1.0000
  C   C158      1.0  0.02413  0.27511  0.16391  1.0000
  C   C159      1.0  0.04417  0.29535  0.20420  1.0000
  C   C160      1.0  0.07155  0.32280  0.18985  1.0000
  N   N40       1.0  0.05808  0.30850  0.00010  1.0000
  H   H33       1.0  0.01829  0.26863  0.91945  1.0000
  O   O33       1.0  0.00144  0.25195  0.82454  1.0000
  O   O34       1.0  0.03815  0.28903  0.75080  1.0000
  H   H34       1.0  0.08548  0.33660  0.78438  1.0000
  H   H35       1.0  0.16633  0.41783  0.78444  1.0000
  O   O35       1.0  0.21376  0.46533  0.75097  1.0000
  O   O36       1.0  0.25056  0.50223  0.82479  1.0000
  H   H36       1.0  0.23390  0.48525  0.91965  1.0000
  H   H37       1.0  0.16626  0.41766  0.21665  1.0000
  O   O37       1.0  0.21379  0.46500  0.25025  1.0000
  O   O38       1.0  0.25078  0.50181  0.17653  1.0000
  H   H38       1.0  0.23408  0.48501  0.08162  1.0000
  H   H39       1.0  0.01812  0.26874  0.08147  1.0000
  O   O39       1.0  0.00115  0.25216  0.17636  1.0000
  O   O40       1.0  0.03790  0.28917  0.25013  1.0000
  H   H40       1.0  0.08528  0.33669  0.21658  1.0000
  Ni  Ni5       1.0  0.12606  0.37694  0.00010  1.0000
  C   C161      1.0  0.72031  0.03265  0.10902  1.0000
  C   C162      1.0  0.72757  0.02553  0.16384  1.0000
  C   C163      1.0  0.70750  0.04572  0.20414  1.0000
  C   C164      1.0  0.68010  0.07315  0.18981  1.0000
  C   C165      1.0  0.67380  0.07932  0.13515  1.0000
  C   C166      1.0  0.69297  0.05998  0.09661  1.0000
  C   C167      1.0  0.68008  0.07278  0.04688  1.0000
  N   N41       1.0  0.65229  0.10067  0.05381  1.0000
  C   C168      1.0  0.64893  0.10419  0.10951  1.0000
  N   N42       1.0  0.62580  0.12750  0.13691  1.0000
  C   C169      1.0  0.60253  0.15068  0.10954  1.0000
  N   N43       1.0  0.59898  0.15405  0.05385  1.0000
  C   C170      1.0  0.57107  0.18182  0.04696  1.0000
  C   C171      1.0  0.55831  0.19471  0.09670  1.0000
  C   C172      1.0  0.57766  0.17554  0.13522  1.0000
  N   N44       1.0  0.59891  0.15402  0.94715  1.0000
  C   C173      1.0  0.57096  0.18176  0.95407  1.0000
  N   N45       1.0  0.55722  0.19539  0.00010  1.0000
  C   C174      1.0  0.55815  0.19463  0.90434  1.0000
  C   C175      1.0  0.57753  0.17550  0.86580  1.0000
  C   C176      1.0  0.60247  0.15069  0.89146  1.0000
  C   C177      1.0  0.57147  0.18180  0.18988  1.0000
  C   C178      1.0  0.54403  0.20917  0.20423  1.0000
  C   C179      1.0  0.52385  0.22926  0.16395  1.0000
  C   C180      1.0  0.53096  0.22202  0.10913  1.0000
  C   C181      1.0  0.57134  0.18177  0.81114  1.0000
  C   C182      1.0  0.54383  0.20906  0.79681  1.0000
  C   C183      1.0  0.52359  0.22908  0.83709  1.0000
  C   C184      1.0  0.53075  0.22188  0.89191  1.0000
  N   N46       1.0  0.65234  0.10077  0.94711  1.0000
  C   C185      1.0  0.64899  0.10434  0.89143  1.0000
  N   N47       1.0  0.62582  0.12762  0.86406  1.0000
  C   C186      1.0  0.67387  0.07951  0.86574  1.0000
  C   C187      1.0  0.69304  0.06014  0.90424  1.0000
  C   C188      1.0  0.68013  0.07287  0.95400  1.0000
  C   C189      1.0  0.72040  0.03285  0.89177  1.0000
  C   C190      1.0  0.72767  0.02582  0.83693  1.0000
  C   C191      1.0  0.70757  0.04602  0.79668  1.0000
  C   C192      1.0  0.68015  0.07340  0.81107  1.0000
  N   N48       1.0  0.69372  0.05905  0.00010  1.0000
  H   H41       1.0  0.73362  0.01925  0.08139  1.0000
  O   O41       1.0  0.75054  0.00257  0.17627  1.0000
  O   O42       1.0  0.71378  0.03952  0.25006  1.0000
  H   H42       1.0  0.66634  0.08700  0.21655  1.0000
  H   H43       1.0  0.58532  0.16803  0.21662  1.0000
  O   O43       1.0  0.53780  0.21540  0.25016  1.0000
  O   O44       1.0  0.50090  0.25224  0.17639  1.0000
  H   H44       1.0  0.51756  0.23535  0.08151  1.0000
  H   H45       1.0  0.58523  0.16804  0.78441  1.0000
  O   O45       1.0  0.53758  0.21528  0.75088  1.0000
  O   O46       1.0  0.50055  0.25197  0.82466  1.0000
  H   H46       1.0  0.51731  0.23518  0.91953  1.0000
  H   H47       1.0  0.73373  0.01943  0.91937  1.0000
  O   O47       1.0  0.75070  0.00293  0.82445  1.0000
  O   O48       1.0  0.71385  0.03987  0.75074  1.0000
  H   H48       1.0  0.66637  0.08727  0.78436  1.0000
  Ni  Ni6       1.0  0.62559  0.12733  0.00010  1.0000
  C   C193      1.0  0.97014  0.72172  0.10905  1.0000
  C   C194      1.0  0.97727  0.72898  0.16387  1.0000
  C   C195      1.0  0.95707  0.70892  0.20417  1.0000
  C   C196      1.0  0.92963  0.68152  0.18985  1.0000
  C   C197      1.0  0.92346  0.67522  0.13519  1.0000
  C   C198      1.0  0.94280  0.69439  0.09665  1.0000
  C   C199      1.0  0.93000  0.68150  0.04692  1.0000
  N   N49       1.0  0.90210  0.65371  0.05386  1.0000
  C   C200      1.0  0.89857  0.65035  0.10955  1.0000
  N   N50       1.0  0.87526  0.62723  0.13696  1.0000
  C   C201      1.0  0.85206  0.60396  0.10960  1.0000
  N   N51       1.0  0.84869  0.60041  0.05391  1.0000
  C   C202      1.0  0.82091  0.57250  0.04701  1.0000
  C   C203      1.0  0.80801  0.55974  0.09676  1.0000
  C   C204      1.0  0.82719  0.57909  0.13528  1.0000
  N   N52       1.0  0.84872  0.60033  0.94721  1.0000
  C   C205      1.0  0.82097  0.57239  0.95413  1.0000
  N   N53       1.0  0.80733  0.55865  0.00010  1.0000
  C   C206      1.0  0.80809  0.55958  0.90440  1.0000
  C   C207      1.0  0.82722  0.57896  0.86586  1.0000
  C   C208      1.0  0.85205  0.60389  0.89151  1.0000
  C   C209      1.0  0.82094  0.57290  0.18994  1.0000
  C   C210      1.0  0.79355  0.54546  0.20429  1.0000
  C   C211      1.0  0.77345  0.52528  0.16402  1.0000
  C   C212      1.0  0.78069  0.53240  0.10920  1.0000
  C   C213      1.0  0.82096  0.57277  0.81120  1.0000
  C   C214      1.0  0.79364  0.54525  0.79687  1.0000
  C   C215      1.0  0.77362  0.52502  0.83716  1.0000
  C   C216      1.0  0.78082  0.53218  0.89198  1.0000
  N   N54       1.0  0.90199  0.65376  0.94716  1.0000
  C   C217      1.0  0.89841  0.65040  0.89147  1.0000
  N   N55       1.0  0.87512  0.62724  0.86410  1.0000
  C   C218      1.0  0.92326  0.67528  0.86578  1.0000
  C   C219      1.0  0.94264  0.69445  0.90427  1.0000
  C   C220      1.0  0.92991  0.68154  0.95404  1.0000
  C   C221      1.0  0.96994  0.72181  0.89180  1.0000
  C   C222      1.0  0.97697  0.72908  0.83696  1.0000
  C   C223      1.0  0.95676  0.70898  0.79671  1.0000
  C   C224      1.0  0.92937  0.68156  0.81110  1.0000
  N   N56       1.0  0.94373  0.69513  0.00010  1.0000
  H   H49       1.0  0.98355  0.73503  0.08142  1.0000
  O   O49       1.0  0.00010  0.75195  0.17629  1.0000
  O   O50       1.0  0.96327  0.71520  0.25009  1.0000
  H   H50       1.0  0.91578  0.66776  0.21659  1.0000
  H   H51       1.0  0.83471  0.58675  0.21668  1.0000
  O   O51       1.0  0.78732  0.53924  0.25022  1.0000
  O   O52       1.0  0.75046  0.50234  0.17646  1.0000
  H   H52       1.0  0.76736  0.51899  0.08157  1.0000
  H   H53       1.0  0.83468  0.58665  0.78446  1.0000
  O   O53       1.0  0.78742  0.53901  0.75095  1.0000
  O   O54       1.0  0.75072  0.50198  0.82473  1.0000
  H   H54       1.0  0.76753  0.51875  0.91960  1.0000
  H   H55       1.0  0.98337  0.73513  0.91940  1.0000
  O   O55       1.0  0.99990  0.75210  0.82447  1.0000
  O   O56       1.0  0.96290  0.71525  0.75077  1.0000
  H   H56       1.0  0.91549  0.66779  0.78440  1.0000
  Ni  Ni7       1.0  0.87542  0.62701  0.00010  1.0000
  C   C225      1.0  0.47055  0.78240  0.89194  1.0000
  C   C226      1.0  0.47769  0.77516  0.83712  1.0000
  C   C227      1.0  0.45746  0.79518  0.79682  1.0000
  C   C228      1.0  0.42996  0.82252  0.81114  1.0000
  C   C229      1.0  0.42377  0.82880  0.86580  1.0000
  C   C230      1.0  0.44315  0.80968  0.90434  1.0000
  C   C231      1.0  0.43032  0.82253  0.95407  1.0000
  N   N57       1.0  0.40236  0.85025  0.94713  1.0000
  C   C232      1.0  0.39883  0.85361  0.89144  1.0000
  N   N58       1.0  0.37548  0.87668  0.86403  1.0000
  C   C233      1.0  0.35224  0.89990  0.89139  1.0000
  N   N59       1.0  0.34885  0.90344  0.94708  1.0000
  C   C234      1.0  0.32101  0.93129  0.95397  1.0000
  C   C235      1.0  0.30810  0.94402  0.90423  1.0000
  C   C236      1.0  0.32732  0.92472  0.86571  1.0000
  N   N60       1.0  0.34887  0.90351  0.05378  1.0000
  C   C237      1.0  0.32107  0.93139  0.04686  1.0000
  N   N61       1.0  0.30741  0.94509  0.00010  1.0000
  C   C238      1.0  0.30816  0.94416  0.09659  1.0000
  C   C239      1.0  0.32733  0.92483  0.13513  1.0000
  C   C240      1.0  0.35221  0.89995  0.10948  1.0000
  C   C241      1.0  0.32106  0.93089  0.81105  1.0000
  C   C242      1.0  0.29362  0.95827  0.79670  1.0000
  C   C243      1.0  0.27348  0.97840  0.83697  1.0000
  C   C244      1.0  0.28073  0.97130  0.89179  1.0000
  C   C245      1.0  0.32105  0.93100  0.18979  1.0000
  C   C246      1.0  0.29368  0.95845  0.20412  1.0000
  C   C247      1.0  0.27362  0.97864  0.16383  1.0000
  C   C248      1.0  0.28085  0.97151  0.10901  1.0000
  N   N62       1.0  0.40225  0.85020  0.05383  1.0000
  C   C249      1.0  0.39866  0.85354  0.10952  1.0000
  N   N63       1.0  0.37533  0.87665  0.13689  1.0000
  C   C250      1.0  0.42356  0.82872  0.13521  1.0000
  C   C251      1.0  0.44297  0.80959  0.09672  1.0000
  C   C252      1.0  0.43022  0.82248  0.04696  1.0000
  C   C253      1.0  0.47033  0.78230  0.10920  1.0000
  C   C254      1.0  0.47737  0.77504  0.16403  1.0000
  C   C255      1.0  0.45712  0.79509  0.20428  1.0000
  C   C256      1.0  0.42967  0.82245  0.18989  1.0000
  N   N64       1.0  0.44407  0.80893  0.00010  1.0000
  H   H57       1.0  0.48397  0.76912  0.91958  1.0000
  O   O57       1.0  0.50070  0.75224  0.82470  1.0000
  O   O58       1.0  0.46367  0.78892  0.75090  1.0000
  H   H58       1.0  0.41608  0.83625  0.78440  1.0000
  H   H59       1.0  0.33485  0.91708  0.78431  1.0000
  O   O59       1.0  0.28738  0.96449  0.75077  1.0000
  O   O60       1.0  0.25044  0.00130  0.82452  1.0000
  H   H60       1.0  0.26737  0.98467  0.91941  1.0000
  H   H61       1.0  0.33480  0.91714  0.21653  1.0000
  O   O61       1.0  0.28745  0.96468  0.25004  1.0000
  O   O62       1.0  0.25068  0.00163  0.17626  1.0000
  H   H62       1.0  0.26752  0.98491  0.08138  1.0000
  H   H63       1.0  0.48378  0.76900  0.08160  1.0000
  O   O63       1.0  0.50031  0.75206  0.17652  1.0000
  O   O64       1.0  0.46327  0.78882  0.25022  1.0000
  H   H64       1.0  0.41577  0.83619  0.21659  1.0000
  Ni  Ni8       1.0  0.37563  0.87689  0.00010  1.0000
  C   C257      1.0  0.21986  0.53228  0.60924  1.0000
  C   C258      1.0  0.22709  0.52519  0.66407  1.0000
  C   C259      1.0  0.20701  0.54539  0.70433  1.0000
  C   C260      1.0  0.17961  0.57281  0.68996  1.0000
  C   C261      1.0  0.17334  0.57896  0.63529  1.0000
  C   C262      1.0  0.19252  0.55961  0.59679  1.0000
  C   C263      1.0  0.17965  0.57239  0.54704  1.0000
  N   N65       1.0  0.15186  0.60028  0.55392  1.0000
  C   C264      1.0  0.14848  0.60383  0.60961  1.0000
  N   N66       1.0  0.12534  0.62714  0.63698  1.0000
  C   C265      1.0  0.10208  0.65031  0.60957  1.0000
  N   N67       1.0  0.09855  0.65366  0.55387  1.0000
  C   C266      1.0  0.07064  0.68143  0.54693  1.0000
  C   C267      1.0  0.05786  0.69434  0.59665  1.0000
  C   C268      1.0  0.07719  0.67519  0.63520  1.0000
  N   N68       1.0  0.09852  0.65359  0.44717  1.0000
  C   C269      1.0  0.07057  0.68132  0.45405  1.0000
  N   N69       1.0  0.05681  0.69498  0.50047  1.0000
  C   C270      1.0  0.05778  0.69418  0.40429  1.0000
  C   C271      1.0  0.07718  0.67504  0.36579  1.0000
  C   C272      1.0  0.10210  0.65023  0.39148  1.0000
  C   C273      1.0  0.07098  0.68146  0.68986  1.0000
  C   C274      1.0  0.04353  0.70884  0.70416  1.0000
  C   C275      1.0  0.02337  0.72892  0.66384  1.0000
  C   C276      1.0  0.03050  0.72165  0.60904  1.0000
  C   C277      1.0  0.07101  0.68127  0.31112  1.0000
  C   C278      1.0  0.04350  0.70857  0.29674  1.0000
  C   C279      1.0  0.02324  0.72860  0.33699  1.0000
  C   C280      1.0  0.03038  0.72142  0.39182  1.0000
  N   N70       1.0  0.15195  0.60033  0.44722  1.0000
  C   C281      1.0  0.14862  0.60389  0.39153  1.0000
  N   N71       1.0  0.12547  0.62715  0.36412  1.0000
  C   C282      1.0  0.17351  0.57904  0.36588  1.0000
  C   C283      1.0  0.19267  0.55969  0.40441  1.0000
  C   C284      1.0  0.17973  0.57243  0.45415  1.0000
  C   C285      1.0  0.22003  0.53239  0.39199  1.0000
  C   C286      1.0  0.22733  0.52534  0.33716  1.0000
  C   C287      1.0  0.20725  0.54552  0.29687  1.0000
  C   C288      1.0  0.17981  0.57291  0.31122  1.0000
  N   N72       1.0  0.19331  0.55864  0.50061  1.0000
  H   H65       1.0  0.23318  0.51887  0.58163  1.0000
  O   O65       1.0  0.25006  0.50223  0.67654  1.0000
  O   O66       1.0  0.21327  0.53921  0.75027  1.0000
  H   H66       1.0  0.16584  0.58667  0.71668  1.0000
  H   H67       1.0  0.08482  0.66771  0.71662  1.0000
  O   O67       1.0  0.03728  0.71509  0.75008  1.0000
  O   O68       1.0  0.00010  0.75190  0.67625  1.0000
  H   H68       1.0  0.01711  0.73496  0.58139  1.0000
  H   H69       1.0  0.08491  0.66754  0.28440  1.0000
  O   O69       1.0  0.03727  0.71476  0.25080  1.0000
  O   O70       1.0  0.00010  0.75148  0.32451  1.0000
  H   H70       1.0  0.01693  0.73473  0.41942  1.0000
  H   H71       1.0  0.23335  0.51898  0.41961  1.0000
  O   O71       1.0  0.25037  0.50244  0.32472  1.0000
  O   O72       1.0  0.21354  0.53936  0.25094  1.0000
  H   H72       1.0  0.16605  0.58676  0.28449  1.0000
  Ni  Ni9       1.0  0.12518  0.62692  0.50055  1.0000
  C   C289      1.0  0.47008  0.22178  0.39191  1.0000
  C   C290      1.0  0.47732  0.22892  0.33709  1.0000
  C   C291      1.0  0.45730  0.20868  0.29679  1.0000
  C   C292      1.0  0.42995  0.18119  0.31112  1.0000
  C   C293      1.0  0.42367  0.17501  0.36578  1.0000
  C   C294      1.0  0.44280  0.19439  0.40432  1.0000
  C   C295      1.0  0.42993  0.18156  0.45405  1.0000
  N   N73       1.0  0.40220  0.15361  0.44711  1.0000
  C   C296      1.0  0.39885  0.15007  0.39142  1.0000
  N   N74       1.0  0.37577  0.12671  0.36402  1.0000
  C   C297      1.0  0.35254  0.10348  0.39139  1.0000
  N   N75       1.0  0.34900  0.10010  0.44708  1.0000
  C   C298      1.0  0.32114  0.07226  0.45398  1.0000
  C   C299      1.0  0.30841  0.05934  0.40423  1.0000
  C   C300      1.0  0.32772  0.07856  0.36571  1.0000
  N   N76       1.0  0.34893  0.10013  0.55378  1.0000
  C   C301      1.0  0.32104  0.07233  0.54686  1.0000
  N   N77       1.0  0.30733  0.05867  0.50041  1.0000
  C   C302      1.0  0.30826  0.05943  0.59660  1.0000
  C   C303      1.0  0.32760  0.07860  0.63513  1.0000
  C   C304      1.0  0.35248  0.10347  0.60947  1.0000
  C   C305      1.0  0.32154  0.07229  0.31105  1.0000
  C   C306      1.0  0.29415  0.04485  0.29671  1.0000
  C   C307      1.0  0.27401  0.02471  0.33699  1.0000
  C   C308      1.0  0.28111  0.03197  0.39181  1.0000
  C   C309      1.0  0.32142  0.07233  0.68979  1.0000
  C   C310      1.0  0.29396  0.04497  0.70413  1.0000
  C   C311      1.0  0.27376  0.02490  0.66384  1.0000
  C   C312      1.0  0.28090  0.03212  0.60902  1.0000
  N   N78       1.0  0.40225  0.15351  0.55382  1.0000
  C   C313      1.0  0.39891  0.14993  0.60950  1.0000
  N   N79       1.0  0.37579  0.12660  0.63687  1.0000
  C   C314      1.0  0.42374  0.17482  0.63519  1.0000
  C   C315      1.0  0.44287  0.19423  0.59669  1.0000
  C   C316      1.0  0.42998  0.18148  0.54693  1.0000
  C   C317      1.0  0.47018  0.22159  0.60916  1.0000
  C   C318      1.0  0.47744  0.22864  0.66400  1.0000
  C   C319      1.0  0.45738  0.20839  0.70425  1.0000
  C   C320      1.0  0.43001  0.18095  0.68986  1.0000
  N   N80       1.0  0.44354  0.19532  0.50050  1.0000
  H   H73       1.0  0.48337  0.23521  0.41954  1.0000
  O   O73       1.0  0.50025  0.25193  0.32466  1.0000
  O   O74       1.0  0.46357  0.21489  0.25087  1.0000
  H   H74       1.0  0.41622  0.16730  0.28438  1.0000
  H   H75       1.0  0.33536  0.08608  0.28431  1.0000
  O   O75       1.0  0.28793  0.03861  0.25078  1.0000
  O   O76       1.0  0.25111  0.00168  0.32454  1.0000
  H   H76       1.0  0.26773  0.01862  0.41943  1.0000
  H   H77       1.0  0.33528  0.08608  0.71653  1.0000
  O   O77       1.0  0.28773  0.03874  0.75005  1.0000
  O   O78       1.0  0.25076  0.00196  0.67628  1.0000
  H   H78       1.0  0.26750  0.01879  0.58140  1.0000
  H   H79       1.0  0.48348  0.23504  0.58156  1.0000
  O   O79       1.0  0.50042  0.25158  0.67648  1.0000
  O   O80       1.0  0.46364  0.21455  0.75019  1.0000
  H   H80       1.0  0.41626  0.16705  0.71657  1.0000
  Ni  Ni10      1.0  0.37556  0.12688  0.50044  1.0000
  C   C321      1.0  0.97089  0.28283  0.39183  1.0000
  C   C322      1.0  0.97800  0.27562  0.33700  1.0000
  C   C323      1.0  0.95775  0.29565  0.29673  1.0000
  C   C324      1.0  0.93027  0.32299  0.31110  1.0000
  C   C325      1.0  0.92410  0.32924  0.36576  1.0000
  C   C326      1.0  0.94350  0.31010  0.40427  1.0000
  C   C327      1.0  0.93069  0.32294  0.45402  1.0000
  N   N81       1.0  0.90273  0.35067  0.44713  1.0000
  C   C328      1.0  0.89917  0.35404  0.39144  1.0000
  N   N82       1.0  0.87581  0.37713  0.36407  1.0000
  C   C329      1.0  0.85258  0.40033  0.39147  1.0000
  N   N83       1.0  0.84922  0.40385  0.44717  1.0000
  C   C330      1.0  0.82138  0.43170  0.45410  1.0000
  C   C331      1.0  0.80844  0.44445  0.40438  1.0000
  C   C332      1.0  0.82765  0.42516  0.36583  1.0000
  N   N84       1.0  0.84929  0.40388  0.55387  1.0000
  C   C333      1.0  0.82148  0.43177  0.54699  1.0000
  N   N85       1.0  0.80780  0.44549  0.50056  1.0000
  C   C334      1.0  0.80860  0.44452  0.59674  1.0000
  C   C335      1.0  0.82778  0.42517  0.63525  1.0000
  C   C336      1.0  0.85264  0.40031  0.60956  1.0000
  C   C337      1.0  0.82136  0.43136  0.31118  1.0000
  C   C338      1.0  0.79392  0.45874  0.29687  1.0000
  C   C339      1.0  0.77379  0.47886  0.33718  1.0000
  C   C340      1.0  0.78107  0.47174  0.39199  1.0000
  C   C341      1.0  0.82153  0.43132  0.68991  1.0000
  C   C342      1.0  0.79417  0.45877  0.70429  1.0000
  C   C343      1.0  0.77408  0.47898  0.66403  1.0000
  C   C344      1.0  0.78128  0.47186  0.60920  1.0000
  N   N86       1.0  0.90267  0.35057  0.55383  1.0000
  C   C345      1.0  0.89910  0.35390  0.60952  1.0000
  N   N87       1.0  0.87578  0.37700  0.63693  1.0000
  C   C346      1.0  0.92401  0.32906  0.63518  1.0000
  C   C347      1.0  0.94340  0.30995  0.59665  1.0000
  C   C348      1.0  0.93063  0.32286  0.54691  1.0000
  C   C349      1.0  0.97076  0.28265  0.60908  1.0000
  C   C350      1.0  0.97783  0.27537  0.66391  1.0000
  C   C351      1.0  0.95760  0.29541  0.70419  1.0000
  C   C352      1.0  0.93015  0.32278  0.68984  1.0000
  N   N88       1.0  0.94446  0.30932  0.50046  1.0000
  H   H81       1.0  0.98433  0.26954  0.41944  1.0000
  O   O81       1.0  0.00101  0.25270  0.32454  1.0000
  O   O82       1.0  0.96395  0.28940  0.25080  1.0000
  H   H82       1.0  0.91637  0.33672  0.28437  1.0000
  H   H83       1.0  0.83515  0.41755  0.28442  1.0000
  O   O83       1.0  0.78766  0.46497  0.25095  1.0000
  O   O84       1.0  0.75075  0.50176  0.32477  1.0000
  H   H84       1.0  0.76772  0.48510  0.41963  1.0000
  H   H85       1.0  0.83529  0.41746  0.71663  1.0000
  O   O85       1.0  0.78795  0.46498  0.75023  1.0000
  O   O86       1.0  0.75115  0.50196  0.67650  1.0000
  H   H86       1.0  0.76795  0.48527  0.58160  1.0000
  H   H87       1.0  0.98421  0.26937  0.58146  1.0000
  O   O87       1.0  0.00010  0.25239  0.67636  1.0000
  O   O88       1.0  0.96377  0.28913  0.75012  1.0000
  H   H88       1.0  0.91626  0.33651  0.71657  1.0000
  Ni  Ni11      1.0  0.87602  0.37728  0.50050  1.0000
  C   C353      1.0  0.53113  0.78244  0.39195  1.0000
  C   C354      1.0  0.52388  0.77530  0.33713  1.0000
  C   C355      1.0  0.54390  0.79554  0.29683  1.0000
  C   C356      1.0  0.57125  0.82303  0.31115  1.0000
  C   C357      1.0  0.57753  0.82921  0.36581  1.0000
  C   C358      1.0  0.55841  0.80983  0.40435  1.0000
  C   C359      1.0  0.57128  0.82266  0.45408  1.0000
  N   N89       1.0  0.59901  0.85062  0.44714  1.0000
  C   C360      1.0  0.60236  0.85415  0.39145  1.0000
  N   N90       1.0  0.62543  0.87751  0.36403  1.0000
  C   C361      1.0  0.64866  0.90075  0.39140  1.0000
  N   N91       1.0  0.65220  0.90413  0.44709  1.0000
  C   C362      1.0  0.68006  0.93197  0.45398  1.0000
  C   C363      1.0  0.69279  0.94489  0.40423  1.0000
  C   C364      1.0  0.67348  0.92567  0.36572  1.0000
  N   N92       1.0  0.65229  0.90410  0.55379  1.0000
  C   C365      1.0  0.68017  0.93190  0.54686  1.0000
  N   N93       1.0  0.69388  0.94557  0.50041  1.0000
  C   C366      1.0  0.69296  0.94481  0.59660  1.0000
  C   C367      1.0  0.67362  0.92564  0.63513  1.0000
  C   C368      1.0  0.64874  0.90077  0.60948  1.0000
  C   C369      1.0  0.67965  0.93194  0.31105  1.0000
  C   C370      1.0  0.70704  0.95938  0.29670  1.0000
  C   C371      1.0  0.72718  0.97952  0.33697  1.0000
  C   C372      1.0  0.72008  0.97227  0.39179  1.0000
  C   C373      1.0  0.67980  0.93192  0.68979  1.0000
  C   C374      1.0  0.70726  0.95928  0.70412  1.0000
  C   C375      1.0  0.72745  0.97935  0.66383  1.0000
  C   C376      1.0  0.72031  0.97213  0.60901  1.0000
  N   N94       1.0  0.59896  0.85072  0.55384  1.0000
  C   C377      1.0  0.60232  0.85431  0.60952  1.0000
  N   N95       1.0  0.62543  0.87764  0.63689  1.0000
  C   C378      1.0  0.57749  0.82941  0.63522  1.0000
  C   C379      1.0  0.55835  0.81000  0.59673  1.0000
  C   C380      1.0  0.57124  0.82275  0.54696  1.0000
  C   C381      1.0  0.53105  0.78264  0.60920  1.0000
  C   C382      1.0  0.52380  0.77559  0.66404  1.0000
  C   C383      1.0  0.54386  0.79584  0.70429  1.0000
  C   C384      1.0  0.57123  0.82329  0.68989  1.0000
  N   N96       1.0  0.55767  0.80891  0.50053  1.0000
  H   H89       1.0  0.51784  0.76901  0.41959  1.0000
  O   O89       1.0  0.50095  0.75228  0.32471  1.0000
  O   O90       1.0  0.53763  0.78932  0.25091  1.0000
  H   H90       1.0  0.58497  0.83691  0.28441  1.0000
  H   H91       1.0  0.66583  0.91814  0.28432  1.0000
  O   O91       1.0  0.71325  0.96562  0.25077  1.0000
  O   O92       1.0  0.75008  0.00255  0.32452  1.0000
  H   H92       1.0  0.73346  0.98562  0.41941  1.0000
  H   H93       1.0  0.66595  0.91816  0.71653  1.0000
  O   O93       1.0  0.71350  0.96551  0.75004  1.0000
  O   O94       1.0  0.75045  0.00229  0.67626  1.0000
  H   H94       1.0  0.73371  0.98545  0.58139  1.0000
  H   H95       1.0  0.51775  0.76919  0.58161  1.0000
  O   O95       1.0  0.50082  0.75265  0.67653  1.0000
  O   O96       1.0  0.53760  0.78969  0.75023  1.0000
  H   H96       1.0  0.58497  0.83719  0.71660  1.0000
  Ni  Ni12      1.0  0.62565  0.87735  0.50046  1.0000
