data_image0
_chemical_formula_structural       C7NCNCNC3NCNC11NCNC7NHO2H2O2H2O2H2O2HNiC7NCNCNC3NCNC11NCNC7NHO2H2O2H2O2H2O2HNiC18HO2H2O2H2O2HC18HO2H2O2H2O2HC18HO2H2O2H2O2HC18HO2H2O2H2O2HC18HO2H2O2H2O2HC18HO2H2O2H2O2HC18HO2H2O2H2O2HC18HO2H2O2H2O2HCu8Zn8
_chemical_formula_sum              "C208 N16 H64 O64 Ni2 Cu8 Zn8"
_cell_length_a       53.2099
_cell_length_b       53.2055
_cell_length_c       21.2295
_cell_angle_alpha    90.0001
_cell_angle_beta     90
_cell_angle_gamma    90.0016

_space_group_name_H-M_alt    "P 1"
_space_group_IT_number       1

loop_
  _space_group_symop_operation_xyz
  'x, y, z'

loop_
  _atom_site_type_symbol
  _atom_site_label
  _atom_site_symmetry_multiplicity
  _atom_site_fract_x
  _atom_site_fract_y
  _atom_site_fract_z
  _atom_site_occupancy
  C   C1        1.0  0.90456  0.94608  0.00010  1.0000
  C   C2        1.0  0.89719  0.91793  0.00010  1.0000
  C   C3        1.0  0.91787  0.89725  0.00010  1.0000
  C   C4        1.0  0.94602  0.90462  0.00010  1.0000
  C   C5        1.0  0.95240  0.93268  0.00010  1.0000
  C   C6        1.0  0.93263  0.95246  0.00010  1.0000
  C   C7        1.0  0.94581  0.97800  0.00010  1.0000
  N   N1        1.0  0.97440  0.97445  0.00010  1.0000
  C   C8        1.0  0.97794  0.94586  0.00010  1.0000
  N   N2        1.0  0.00179  0.93179  0.99990  1.0000
  C   C9        1.0  0.02563  0.94585  0.99990  1.0000
  N   N3        1.0  0.02918  0.97445  0.00010  1.0000
  C   C10       1.0  0.05777  0.97800  0.00010  1.0000
  C   C11       1.0  0.07095  0.95246  0.00010  1.0000
  C   C12       1.0  0.05117  0.93268  0.99990  1.0000
  N   N4        1.0  0.02918  0.02923  0.00010  1.0000
  C   C13       1.0  0.05777  0.02569  0.00010  1.0000
  N   N5        1.0  0.07183  0.00184  0.00010  1.0000
  C   C14       1.0  0.07095  0.05123  0.00010  1.0000
  C   C15       1.0  0.05117  0.07100  0.00010  1.0000
  C   C16       1.0  0.02563  0.05782  0.00010  1.0000
  C   C17       1.0  0.05757  0.90462  0.99990  1.0000
  C   C18       1.0  0.08572  0.89726  0.99990  1.0000
  C   C19       1.0  0.10639  0.91795  0.99990  1.0000
  C   C20       1.0  0.09901  0.94609  0.00010  1.0000
  C   C21       1.0  0.05755  0.09907  0.00010  1.0000
  C   C22       1.0  0.08569  0.10644  0.00010  1.0000
  C   C23       1.0  0.10637  0.08576  0.00010  1.0000
  C   C24       1.0  0.09901  0.05762  0.00010  1.0000
  N   N6        1.0  0.97440  0.02923  0.00010  1.0000
  C   C25       1.0  0.97795  0.05782  0.99990  1.0000
  N   N7        1.0  0.00179  0.07188  0.99990  1.0000
  C   C26       1.0  0.95242  0.07100  0.00010  1.0000
  C   C27       1.0  0.93264  0.05123  0.00010  1.0000
  C   C28       1.0  0.94581  0.02569  0.00010  1.0000
  C   C29       1.0  0.90458  0.05762  0.00010  1.0000
  C   C30       1.0  0.89722  0.08577  0.00010  1.0000
  C   C31       1.0  0.91791  0.10645  0.99990  1.0000
  C   C32       1.0  0.94605  0.09907  0.99990  1.0000
  N   N8        1.0  0.93175  0.00184  0.00010  1.0000
  H   H1        1.0  0.89084  0.96026  0.00010  1.0000
  O   O1        1.0  0.87361  0.91154  0.00010  1.0000
  O   O2        1.0  0.91147  0.87367  0.00010  1.0000
  H   H2        1.0  0.96019  0.89089  0.00010  1.0000
  H   H3        1.0  0.04340  0.89088  0.99990  1.0000
  O   O3        1.0  0.09213  0.87368  0.99990  1.0000
  O   O4        1.0  0.12998  0.91157  0.99990  1.0000
  H   H4        1.0  0.11273  0.96028  0.00010  1.0000
  H   H5        1.0  0.04337  0.11279  0.99990  1.0000
  O   O5        1.0  0.09208  0.13002  0.00010  1.0000
  O   O6        1.0  0.12995  0.09216  0.00010  1.0000
  H   H6        1.0  0.11274  0.04344  0.00010  1.0000
  H   H7        1.0  0.89085  0.04345  0.00010  1.0000
  O   O7        1.0  0.87364  0.09217  0.99990  1.0000
  O   O8        1.0  0.91152  0.13003  0.99990  1.0000
  H   H8        1.0  0.96023  0.11279  0.99990  1.0000
  Ni  Ni1       1.0  0.00179  0.00184  0.00010  1.0000
  C   C33       1.0  0.59901  0.44607  0.49941  1.0000
  C   C34       1.0  0.60637  0.41792  0.49957  1.0000
  C   C35       1.0  0.58570  0.39724  0.49979  1.0000
  C   C36       1.0  0.55755  0.40461  0.49990  1.0000
  C   C37       1.0  0.55116  0.43268  0.49976  1.0000
  C   C38       1.0  0.57094  0.45245  0.49949  1.0000
  C   C39       1.0  0.55776  0.47799  0.49941  1.0000
  N   N9        1.0  0.52918  0.47445  0.49963  1.0000
  C   C40       1.0  0.52562  0.44585  0.49985  1.0000
  N   N10       1.0  0.50178  0.43179  0.50015  1.0000
  C   C41       1.0  0.47794  0.44586  0.50011  1.0000
  N   N11       1.0  0.47439  0.47445  0.49989  1.0000
  C   C42       1.0  0.44580  0.47800  0.49979  1.0000
  C   C43       1.0  0.43262  0.45247  0.50000  1.0000
  C   C44       1.0  0.45239  0.43268  0.50017  1.0000
  N   N12       1.0  0.47440  0.52923  0.49975  1.0000
  C   C45       1.0  0.44581  0.52569  0.49957  1.0000
  N   N13       1.0  0.43174  0.50185  0.49948  1.0000
  C   C46       1.0  0.43264  0.55123  0.49969  1.0000
  C   C47       1.0  0.45241  0.57101  0.49996  1.0000
  C   C48       1.0  0.47795  0.55782  0.50004  1.0000
  C   C49       1.0  0.44599  0.40462  0.50027  1.0000
  C   C50       1.0  0.41784  0.39727  0.50027  1.0000
  C   C51       1.0  0.39717  0.41796  0.50021  1.0000
  C   C52       1.0  0.40456  0.44610  0.50003  1.0000
  C   C53       1.0  0.44604  0.59907  0.50007  1.0000
  C   C54       1.0  0.41790  0.60645  0.49988  1.0000
  C   C55       1.0  0.39721  0.58577  0.49966  1.0000
  C   C56       1.0  0.40457  0.55762  0.49958  1.0000
  N   N14       1.0  0.52918  0.52923  0.49982  1.0000
  C   C57       1.0  0.52563  0.55782  0.50011  1.0000
  N   N15       1.0  0.50179  0.57188  0.50034  1.0000
  C   C58       1.0  0.55116  0.57100  0.50010  1.0000
  C   C59       1.0  0.57094  0.55122  0.49978  1.0000
  C   C60       1.0  0.55777  0.52568  0.49958  1.0000
  C   C61       1.0  0.59901  0.55761  0.49979  1.0000
  C   C62       1.0  0.60637  0.58577  0.50008  1.0000
  C   C63       1.0  0.58568  0.60644  0.50028  1.0000
  C   C64       1.0  0.55754  0.59907  0.50030  1.0000
  N   N16       1.0  0.57182  0.50184  0.49925  1.0000
  H   H9        1.0  0.61273  0.46025  0.49926  1.0000
  O   O9        1.0  0.62996  0.41153  0.49951  1.0000
  O   O10       1.0  0.59209  0.37366  0.49988  1.0000
  H   H10       1.0  0.54337  0.39089  0.50007  1.0000
  H   H11       1.0  0.46016  0.39089  0.50034  1.0000
  O   O11       1.0  0.41143  0.37369  0.50029  1.0000
  O   O12       1.0  0.37359  0.41158  0.50032  1.0000
  H   H12       1.0  0.39084  0.46029  0.49997  1.0000
  H   H13       1.0  0.46022  0.61280  0.50024  1.0000
  O   O13       1.0  0.41151  0.63003  0.49986  1.0000
  O   O14       1.0  0.37364  0.59217  0.49953  1.0000
  H   H14       1.0  0.39084  0.54345  0.49944  1.0000
  H   H15       1.0  0.61273  0.54344  0.49963  1.0000
  O   O15       1.0  0.62994  0.59216  0.50018  1.0000
  O   O16       1.0  0.59207  0.63002  0.50042  1.0000
  H   H16       1.0  0.54335  0.61278  0.50046  1.0000
  Ni  Ni2       1.0  0.50179  0.50184  0.49966  1.0000
  C   C65       1.0  0.21105  0.21114  0.06605  1.0000
  C   C66       1.0  0.22716  0.22726  0.03307  1.0000
  C   C67       1.0  0.22716  0.22726  0.96713  1.0000
  C   C68       1.0  0.21105  0.21114  0.93415  1.0000
  C   C69       1.0  0.19494  0.19503  0.96713  1.0000
  C   C70       1.0  0.19494  0.19502  0.03307  1.0000
  C   C71       1.0  0.21105  0.21114  0.86821  1.0000
  C   C72       1.0  0.22716  0.22726  0.83523  1.0000
  C   C73       1.0  0.24327  0.24337  0.86821  1.0000
  C   C74       1.0  0.24327  0.24337  0.93415  1.0000
  C   C75       1.0  0.21105  0.21114  0.13199  1.0000
  C   C76       1.0  0.22716  0.22726  0.16496  1.0000
  C   C77       1.0  0.24327  0.24337  0.13199  1.0000
  C   C78       1.0  0.24327  0.24337  0.06605  1.0000
  C   C79       1.0  0.17883  0.17891  0.06605  1.0000
  C   C80       1.0  0.16272  0.16279  0.03307  1.0000
  C   C81       1.0  0.16272  0.16279  0.96713  1.0000
  C   C82       1.0  0.17883  0.17891  0.93415  1.0000
  H   H17       1.0  0.19897  0.19905  0.84348  1.0000
  O   O17       1.0  0.22716  0.22726  0.77588  1.0000
  O   O18       1.0  0.25777  0.25788  0.83853  1.0000
  H   H18       1.0  0.25535  0.25546  0.95888  1.0000
  H   H19       1.0  0.19897  0.19905  0.15672  1.0000
  O   O19       1.0  0.22716  0.22726  0.22432  1.0000
  O   O20       1.0  0.25777  0.25788  0.16167  1.0000
  H   H20       1.0  0.25535  0.25546  0.04132  1.0000
  H   H21       1.0  0.17883  0.17891  0.11551  1.0000
  O   O21       1.0  0.14822  0.14829  0.06275  1.0000
  O   O22       1.0  0.14822  0.14829  0.93745  1.0000
  H   H22       1.0  0.17883  0.17891  0.88469  1.0000
  C   C83       1.0  0.77644  0.22728  0.03307  1.0000
  C   C84       1.0  0.79256  0.21117  0.06605  1.0000
  C   C85       1.0  0.80867  0.19506  0.03307  1.0000
  C   C86       1.0  0.80867  0.19506  0.96713  1.0000
  C   C87       1.0  0.79256  0.21117  0.93415  1.0000
  C   C88       1.0  0.77644  0.22728  0.96713  1.0000
  C   C89       1.0  0.82478  0.17894  0.93415  1.0000
  C   C90       1.0  0.84090  0.16283  0.96713  1.0000
  C   C91       1.0  0.84090  0.16283  0.03307  1.0000
  C   C92       1.0  0.82478  0.17894  0.06605  1.0000
  C   C93       1.0  0.76033  0.24339  0.06605  1.0000
  C   C94       1.0  0.76033  0.24339  0.13199  1.0000
  C   C95       1.0  0.77644  0.22728  0.16496  1.0000
  C   C96       1.0  0.79256  0.21117  0.13199  1.0000
  C   C97       1.0  0.76033  0.24339  0.93415  1.0000
  C   C98       1.0  0.76033  0.24339  0.86821  1.0000
  C   C99       1.0  0.77644  0.22728  0.83523  1.0000
  C   C100      1.0  0.79256  0.21117  0.86821  1.0000
  H   H23       1.0  0.82478  0.17894  0.88469  1.0000
  O   O23       1.0  0.85540  0.14833  0.93745  1.0000
  O   O24       1.0  0.85540  0.14833  0.06275  1.0000
  H   H24       1.0  0.82478  0.17894  0.11551  1.0000
  H   H25       1.0  0.74824  0.25547  0.04132  1.0000
  O   O25       1.0  0.74583  0.25789  0.16167  1.0000
  O   O26       1.0  0.77644  0.22728  0.22432  1.0000
  H   H26       1.0  0.80464  0.19908  0.15672  1.0000
  H   H27       1.0  0.74824  0.25547  0.95888  1.0000
  O   O27       1.0  0.74583  0.25789  0.83853  1.0000
  O   O28       1.0  0.77644  0.22728  0.77588  1.0000
  H   H28       1.0  0.80464  0.19908  0.84348  1.0000
  C   C101      1.0  0.77638  0.77645  0.96713  1.0000
  C   C102      1.0  0.79249  0.79257  0.93415  1.0000
  C   C103      1.0  0.80860  0.80868  0.96713  1.0000
  C   C104      1.0  0.80860  0.80868  0.03307  1.0000
  C   C105      1.0  0.79249  0.79257  0.06605  1.0000
  C   C106      1.0  0.77638  0.77645  0.03307  1.0000
  C   C107      1.0  0.82472  0.82479  0.06605  1.0000
  C   C108      1.0  0.84083  0.84090  0.03307  1.0000
  C   C109      1.0  0.84083  0.84090  0.96713  1.0000
  C   C110      1.0  0.82472  0.82479  0.93415  1.0000
  C   C111      1.0  0.76026  0.76034  0.93415  1.0000
  C   C112      1.0  0.76026  0.76034  0.86821  1.0000
  C   C113      1.0  0.77638  0.77645  0.83524  1.0000
  C   C114      1.0  0.79249  0.79257  0.86821  1.0000
  C   C115      1.0  0.76026  0.76034  0.06605  1.0000
  C   C116      1.0  0.76026  0.76034  0.13199  1.0000
  C   C117      1.0  0.77638  0.77645  0.16497  1.0000
  C   C118      1.0  0.79249  0.79257  0.13199  1.0000
  H   H29       1.0  0.82472  0.82479  0.11551  1.0000
  O   O29       1.0  0.85533  0.85540  0.06275  1.0000
  O   O30       1.0  0.85533  0.85540  0.93745  1.0000
  H   H30       1.0  0.82472  0.82479  0.88469  1.0000
  H   H31       1.0  0.74818  0.74826  0.95888  1.0000
  O   O31       1.0  0.74576  0.74584  0.83853  1.0000
  O   O32       1.0  0.77638  0.77645  0.77588  1.0000
  H   H32       1.0  0.80458  0.80465  0.84348  1.0000
  H   H33       1.0  0.74818  0.74826  0.04132  1.0000
  O   O33       1.0  0.74576  0.74584  0.16167  1.0000
  O   O34       1.0  0.77638  0.77645  0.22432  1.0000
  H   H34       1.0  0.80458  0.80465  0.15672  1.0000
  C   C119      1.0  0.21111  0.79260  0.93415  1.0000
  C   C120      1.0  0.22723  0.77649  0.96713  1.0000
  C   C121      1.0  0.22723  0.77649  0.03307  1.0000
  C   C122      1.0  0.21111  0.79260  0.06605  1.0000
  C   C123      1.0  0.19500  0.80871  0.03307  1.0000
  C   C124      1.0  0.19500  0.80871  0.96713  1.0000
  C   C125      1.0  0.21111  0.79260  0.13199  1.0000
  C   C126      1.0  0.22723  0.77649  0.16497  1.0000
  C   C127      1.0  0.24334  0.76038  0.13199  1.0000
  C   C128      1.0  0.24334  0.76038  0.06605  1.0000
  C   C129      1.0  0.21111  0.79260  0.86821  1.0000
  C   C130      1.0  0.22723  0.77649  0.83524  1.0000
  C   C131      1.0  0.24334  0.76038  0.86821  1.0000
  C   C132      1.0  0.24334  0.76038  0.93415  1.0000
  C   C133      1.0  0.17889  0.82482  0.93415  1.0000
  C   C134      1.0  0.16277  0.84094  0.96713  1.0000
  C   C135      1.0  0.16277  0.84094  0.03307  1.0000
  C   C136      1.0  0.17889  0.82482  0.06605  1.0000
  H   H35       1.0  0.19903  0.80469  0.15672  1.0000
  O   O35       1.0  0.22723  0.77649  0.22432  1.0000
  O   O36       1.0  0.25784  0.74588  0.16167  1.0000
  H   H36       1.0  0.25543  0.74830  0.04132  1.0000
  H   H37       1.0  0.19903  0.80469  0.84348  1.0000
  O   O37       1.0  0.22723  0.77649  0.77588  1.0000
  O   O38       1.0  0.25784  0.74588  0.83853  1.0000
  H   H38       1.0  0.25543  0.74830  0.95888  1.0000
  H   H39       1.0  0.17889  0.82482  0.88469  1.0000
  O   O39       1.0  0.14827  0.85544  0.93745  1.0000
  O   O40       1.0  0.14827  0.85544  0.06275  1.0000
  H   H40       1.0  0.17889  0.82482  0.11551  1.0000
  C   C137      1.0  0.71105  0.71114  0.56595  1.0000
  C   C138      1.0  0.72716  0.72725  0.53297  1.0000
  C   C139      1.0  0.72716  0.72725  0.46703  1.0000
  C   C140      1.0  0.71105  0.71114  0.43405  1.0000
  C   C141      1.0  0.69494  0.69502  0.46703  1.0000
  C   C142      1.0  0.69494  0.69502  0.53297  1.0000
  C   C143      1.0  0.71105  0.71114  0.36811  1.0000
  C   C144      1.0  0.72716  0.72725  0.33514  1.0000
  C   C145      1.0  0.74328  0.74336  0.36811  1.0000
  C   C146      1.0  0.74328  0.74336  0.43405  1.0000
  C   C147      1.0  0.71105  0.71114  0.63189  1.0000
  C   C148      1.0  0.72716  0.72725  0.66487  1.0000
  C   C149      1.0  0.74328  0.74336  0.63189  1.0000
  C   C150      1.0  0.74328  0.74336  0.56595  1.0000
  C   C151      1.0  0.67882  0.67891  0.56595  1.0000
  C   C152      1.0  0.66271  0.66280  0.53297  1.0000
  C   C153      1.0  0.66271  0.66280  0.46703  1.0000
  C   C154      1.0  0.67882  0.67891  0.43405  1.0000
  H   H41       1.0  0.69896  0.69905  0.34338  1.0000
  O   O41       1.0  0.72716  0.72725  0.27578  1.0000
  O   O42       1.0  0.75778  0.75786  0.33843  1.0000
  H   H42       1.0  0.75536  0.75545  0.45878  1.0000
  H   H43       1.0  0.69896  0.69905  0.65662  1.0000
  O   O43       1.0  0.72716  0.72725  0.72422  1.0000
  O   O44       1.0  0.75778  0.75786  0.66157  1.0000
  H   H44       1.0  0.75536  0.75545  0.54122  1.0000
  H   H45       1.0  0.67882  0.67891  0.61541  1.0000
  O   O45       1.0  0.64821  0.64830  0.56265  1.0000
  O   O46       1.0  0.64821  0.64830  0.43735  1.0000
  H   H46       1.0  0.67882  0.67891  0.38460  1.0000
  C   C155      1.0  0.27643  0.72727  0.53297  1.0000
  C   C156      1.0  0.29254  0.71116  0.56595  1.0000
  C   C157      1.0  0.30865  0.69504  0.53297  1.0000
  C   C158      1.0  0.30865  0.69504  0.46703  1.0000
  C   C159      1.0  0.29254  0.71116  0.43405  1.0000
  C   C160      1.0  0.27643  0.72727  0.46703  1.0000
  C   C161      1.0  0.32476  0.67893  0.43405  1.0000
  C   C162      1.0  0.34087  0.66281  0.46703  1.0000
  C   C163      1.0  0.34087  0.66281  0.53297  1.0000
  C   C164      1.0  0.32476  0.67893  0.56595  1.0000
  C   C165      1.0  0.26032  0.74339  0.56595  1.0000
  C   C166      1.0  0.26032  0.74339  0.63189  1.0000
  C   C167      1.0  0.27643  0.72727  0.66487  1.0000
  C   C168      1.0  0.29254  0.71116  0.63189  1.0000
  C   C169      1.0  0.26032  0.74339  0.43405  1.0000
  C   C170      1.0  0.26032  0.74339  0.36811  1.0000
  C   C171      1.0  0.27643  0.72727  0.33514  1.0000
  C   C172      1.0  0.29254  0.71116  0.36811  1.0000
  H   H47       1.0  0.32476  0.67893  0.38460  1.0000
  O   O47       1.0  0.35537  0.64831  0.43735  1.0000
  O   O48       1.0  0.35537  0.64831  0.56265  1.0000
  H   H48       1.0  0.32476  0.67893  0.61541  1.0000
  H   H49       1.0  0.24824  0.75547  0.54122  1.0000
  O   O49       1.0  0.24582  0.75789  0.66157  1.0000
  O   O50       1.0  0.27643  0.72727  0.72422  1.0000
  H   H50       1.0  0.30463  0.69907  0.65662  1.0000
  H   H51       1.0  0.24824  0.75547  0.45878  1.0000
  O   O51       1.0  0.24582  0.75789  0.33843  1.0000
  O   O52       1.0  0.27643  0.72727  0.27578  1.0000
  H   H52       1.0  0.30463  0.69907  0.34338  1.0000
  C   C173      1.0  0.27633  0.27651  0.46703  1.0000
  C   C174      1.0  0.29244  0.29262  0.43405  1.0000
  C   C175      1.0  0.30856  0.30873  0.46703  1.0000
  C   C176      1.0  0.30856  0.30873  0.53297  1.0000
  C   C177      1.0  0.29244  0.29262  0.56595  1.0000
  C   C178      1.0  0.27633  0.27651  0.53297  1.0000
  C   C179      1.0  0.32467  0.32485  0.56595  1.0000
  C   C180      1.0  0.34078  0.34096  0.53297  1.0000
  C   C181      1.0  0.34078  0.34096  0.46703  1.0000
  C   C182      1.0  0.32467  0.32485  0.43405  1.0000
  C   C183      1.0  0.26022  0.26040  0.43405  1.0000
  C   C184      1.0  0.26022  0.26040  0.36811  1.0000
  C   C185      1.0  0.27633  0.27651  0.33514  1.0000
  C   C186      1.0  0.29244  0.29262  0.36811  1.0000
  C   C187      1.0  0.26022  0.26040  0.56595  1.0000
  C   C188      1.0  0.26022  0.26040  0.63189  1.0000
  C   C189      1.0  0.27633  0.27651  0.66487  1.0000
  C   C190      1.0  0.29244  0.29262  0.63189  1.0000
  H   H53       1.0  0.32467  0.32485  0.61541  1.0000
  O   O53       1.0  0.35528  0.35546  0.56265  1.0000
  O   O54       1.0  0.35528  0.35546  0.43735  1.0000
  H   H54       1.0  0.32467  0.32485  0.38460  1.0000
  H   H55       1.0  0.24813  0.24831  0.45878  1.0000
  O   O55       1.0  0.24571  0.24590  0.33843  1.0000
  O   O56       1.0  0.27633  0.27651  0.27578  1.0000
  H   H56       1.0  0.30453  0.30471  0.34338  1.0000
  H   H57       1.0  0.24813  0.24831  0.54122  1.0000
  O   O57       1.0  0.24571  0.24590  0.66157  1.0000
  O   O58       1.0  0.27633  0.27651  0.72422  1.0000
  H   H58       1.0  0.30453  0.30471  0.65662  1.0000
  C   C191      1.0  0.71107  0.29255  0.56595  1.0000
  C   C192      1.0  0.72718  0.27644  0.53297  1.0000
  C   C193      1.0  0.72718  0.27644  0.46703  1.0000
  C   C194      1.0  0.71107  0.29255  0.43405  1.0000
  C   C195      1.0  0.69495  0.30866  0.46703  1.0000
  C   C196      1.0  0.69495  0.30866  0.53297  1.0000
  C   C197      1.0  0.71107  0.29255  0.36811  1.0000
  C   C198      1.0  0.72718  0.27644  0.33513  1.0000
  C   C199      1.0  0.74330  0.26033  0.36811  1.0000
  C   C200      1.0  0.74330  0.26033  0.43405  1.0000
  C   C201      1.0  0.71107  0.29255  0.63189  1.0000
  C   C202      1.0  0.72718  0.27644  0.66486  1.0000
  C   C203      1.0  0.74330  0.26033  0.63189  1.0000
  C   C204      1.0  0.74330  0.26033  0.56595  1.0000
  C   C205      1.0  0.67884  0.32477  0.56595  1.0000
  C   C206      1.0  0.66272  0.34088  0.53297  1.0000
  C   C207      1.0  0.66272  0.34088  0.46703  1.0000
  C   C208      1.0  0.67884  0.32477  0.43405  1.0000
  H   H59       1.0  0.69898  0.30463  0.34338  1.0000
  O   O59       1.0  0.72718  0.27644  0.27578  1.0000
  O   O60       1.0  0.75780  0.24583  0.33843  1.0000
  H   H60       1.0  0.75538  0.24825  0.45878  1.0000
  H   H61       1.0  0.69898  0.30463  0.65662  1.0000
  O   O61       1.0  0.72718  0.27644  0.72422  1.0000
  O   O62       1.0  0.75780  0.24583  0.66157  1.0000
  H   H62       1.0  0.75538  0.24825  0.54122  1.0000
  H   H63       1.0  0.67884  0.32477  0.61541  1.0000
  O   O63       1.0  0.64822  0.35538  0.56265  1.0000
  O   O64       1.0  0.64822  0.35538  0.43735  1.0000
  H   H64       1.0  0.67884  0.32477  0.38459  1.0000
  Cu  Cu1       1.0  0.25174  0.25189  0.25010  1.0000
  Cu  Cu2       1.0  0.75181  0.25186  0.25010  1.0000
  Cu  Cu3       1.0  0.75177  0.75185  0.25000  1.0000
  Cu  Cu4       1.0  0.25183  0.75188  0.25000  1.0000
  Cu  Cu5       1.0  0.25183  0.75188  0.75010  1.0000
  Cu  Cu6       1.0  0.25174  0.25189  0.75010  1.0000
  Cu  Cu7       1.0  0.75181  0.25186  0.75010  1.0000
  Cu  Cu8       1.0  0.75177  0.75185  0.75010  1.0000
  Zn  Zn1       1.0  0.12962  0.12969  0.00010  1.0000
  Zn  Zn2       1.0  0.87399  0.12972  0.99990  1.0000
  Zn  Zn3       1.0  0.87394  0.87400  0.00010  1.0000
  Zn  Zn4       1.0  0.12966  0.87403  0.99990  1.0000
  Zn  Zn5       1.0  0.62961  0.62970  0.50015  1.0000
  Zn  Zn6       1.0  0.37397  0.62970  0.49985  1.0000
  Zn  Zn7       1.0  0.37390  0.37405  0.50015  1.0000
  Zn  Zn8       1.0  0.62962  0.37399  0.49985  1.0000
