data_image0
_chemical_formula_structural       C7NCNCNC3NCNC11NCNC7NHO2H2O2H2O2H2O2HNiC7NCNCNC3NCNC11NCNC7NHO2H2O2H2O2H2O2HNiC26H7O2H2O2HC4HO2HC26H7O2H2O2HC4HO2HC26H7O2H2O2HC4HO2HC26H7O2H2O2HC4HO2HC26H7O2H2O2HC4HO2HC26H7O2H2O2HC4HO2HC26H7O2H2O2HC4HO2HC26H7O2H2O2HC4HO2HCu8Zn8
_chemical_formula_sum              "C304 N16 H112 O64 Ni2 Cu8 Zn8"
_cell_length_a       66.95
_cell_length_b       66.9558
_cell_length_c       32.4498
_cell_angle_alpha    90
_cell_angle_beta     90
_cell_angle_gamma    89.9995

_space_group_name_H-M_alt    "P 1"
_space_group_IT_number       1

loop_
  _space_group_symop_operation_xyz
  'x, y, z'

loop_
  _atom_site_type_symbol
  _atom_site_label
  _atom_site_symmetry_multiplicity
  _atom_site_fract_x
  _atom_site_fract_y
  _atom_site_fract_z
  _atom_site_occupancy
  C   C1        1.0  0.92443  0.95605  0.00010  1.0000
  C   C2        1.0  0.91857  0.93368  0.00010  1.0000
  C   C3        1.0  0.93501  0.91725  0.00010  1.0000
  C   C4        1.0  0.95738  0.92310  0.00010  1.0000
  C   C5        1.0  0.96246  0.94540  0.00010  1.0000
  C   C6        1.0  0.94674  0.96112  0.00010  1.0000
  C   C7        1.0  0.95721  0.98141  0.00010  1.0000
  N   N1        1.0  0.97993  0.97859  0.00010  1.0000
  C   C8        1.0  0.98275  0.95587  0.00010  1.0000
  N   N2        1.0  0.00170  0.94470  0.00010  1.0000
  C   C9        1.0  0.02065  0.95587  0.00010  1.0000
  N   N3        1.0  0.02347  0.97859  0.00010  1.0000
  C   C10       1.0  0.04619  0.98142  0.00010  1.0000
  C   C11       1.0  0.05667  0.96112  0.00010  1.0000
  C   C12       1.0  0.04096  0.94540  0.99990  1.0000
  N   N4        1.0  0.02347  0.02213  0.00010  1.0000
  C   C13       1.0  0.04619  0.01931  0.00010  1.0000
  N   N5        1.0  0.05737  0.00010  0.00010  1.0000
  C   C14       1.0  0.05667  0.03961  0.00010  1.0000
  C   C15       1.0  0.04095  0.05532  0.00010  1.0000
  C   C16       1.0  0.02065  0.04485  0.00010  1.0000
  C   C17       1.0  0.04604  0.92310  0.99990  1.0000
  C   C18       1.0  0.06842  0.91726  0.99990  1.0000
  C   C19       1.0  0.08484  0.93370  0.99990  1.0000
  C   C20       1.0  0.07897  0.95606  0.00010  1.0000
  C   C21       1.0  0.04602  0.07762  0.00010  1.0000
  C   C22       1.0  0.06838  0.08348  0.00010  1.0000
  C   C23       1.0  0.08482  0.06705  0.00010  1.0000
  C   C24       1.0  0.07897  0.04468  0.00010  1.0000
  N   N6        1.0  0.97994  0.02213  0.00010  1.0000
  C   C25       1.0  0.98276  0.04485  0.00010  1.0000
  N   N7        1.0  0.00170  0.05602  0.99990  1.0000
  C   C26       1.0  0.96246  0.05532  0.00010  1.0000
  C   C27       1.0  0.94674  0.03961  0.00010  1.0000
  C   C28       1.0  0.95721  0.01931  0.00010  1.0000
  C   C29       1.0  0.92444  0.04469  0.00010  1.0000
  C   C30       1.0  0.91859  0.06706  0.00010  1.0000
  C   C31       1.0  0.93503  0.08349  0.99990  1.0000
  C   C32       1.0  0.95740  0.07762  0.99990  1.0000
  N   N8        1.0  0.94604  0.00010  0.00010  1.0000
  H   H1        1.0  0.91353  0.96732  0.00010  1.0000
  O   O1        1.0  0.89983  0.92861  0.00010  1.0000
  O   O2        1.0  0.92992  0.89851  0.00010  1.0000
  H   H2        1.0  0.96865  0.91220  0.00010  1.0000
  H   H3        1.0  0.03478  0.91219  0.99990  1.0000
  O   O3        1.0  0.07351  0.89852  0.99990  1.0000
  O   O4        1.0  0.10359  0.92863  0.99990  1.0000
  H   H4        1.0  0.08988  0.96734  0.00010  1.0000
  H   H5        1.0  0.03475  0.08853  0.99990  1.0000
  O   O5        1.0  0.07346  0.10222  0.00010  1.0000
  O   O6        1.0  0.10356  0.07213  0.00010  1.0000
  H   H6        1.0  0.08988  0.03342  0.00010  1.0000
  H   H7        1.0  0.91353  0.03342  0.00010  1.0000
  O   O7        1.0  0.89985  0.07214  0.99990  1.0000
  O   O8        1.0  0.92996  0.10223  0.99990  1.0000
  H   H8        1.0  0.96867  0.08852  0.99990  1.0000
  Ni  Ni1       1.0  0.00170  0.00010  0.00010  1.0000
  C   C33       1.0  0.57899  0.45606  0.49961  1.0000
  C   C34       1.0  0.58485  0.43370  0.49972  1.0000
  C   C35       1.0  0.56842  0.41726  0.49986  1.0000
  C   C36       1.0  0.54605  0.42311  0.49994  1.0000
  C   C37       1.0  0.54097  0.44541  0.49985  1.0000
  C   C38       1.0  0.55668  0.46113  0.49966  1.0000
  C   C39       1.0  0.54620  0.48142  0.49961  1.0000
  N   N9        1.0  0.52348  0.47859  0.49975  1.0000
  C   C40       1.0  0.52067  0.45587  0.49990  1.0000
  N   N10       1.0  0.50172  0.44470  0.50010  1.0000
  C   C41       1.0  0.48276  0.45587  0.50007  1.0000
  N   N11       1.0  0.47994  0.47859  0.49993  1.0000
  C   C42       1.0  0.45722  0.48140  0.49986  1.0000
  C   C43       1.0  0.44675  0.46111  0.50000  1.0000
  C   C44       1.0  0.46246  0.44539  0.50011  1.0000
  N   N12       1.0  0.47993  0.52212  0.49984  1.0000
  C   C45       1.0  0.45721  0.51930  0.49972  1.0000
  N   N13       1.0  0.44604  0.50035  0.49966  1.0000
  C   C46       1.0  0.44673  0.53959  0.49980  1.0000
  C   C47       1.0  0.46245  0.55531  0.49997  1.0000
  C   C48       1.0  0.48275  0.54484  0.50002  1.0000
  C   C49       1.0  0.45738  0.42309  0.50018  1.0000
  C   C50       1.0  0.43501  0.41724  0.50017  1.0000
  C   C51       1.0  0.41858  0.43368  0.50014  1.0000
  C   C52       1.0  0.42444  0.45604  0.50002  1.0000
  C   C53       1.0  0.45737  0.57761  0.50005  1.0000
  C   C54       1.0  0.43501  0.58346  0.49992  1.0000
  C   C55       1.0  0.41857  0.56703  0.49978  1.0000
  C   C56       1.0  0.42443  0.54466  0.49972  1.0000
  N   N14       1.0  0.52347  0.52213  0.49988  1.0000
  C   C57       1.0  0.52064  0.54485  0.50007  1.0000
  N   N15       1.0  0.50169  0.55602  0.50022  1.0000
  C   C58       1.0  0.54093  0.55532  0.50006  1.0000
  C   C59       1.0  0.55666  0.53961  0.49986  1.0000
  C   C60       1.0  0.54619  0.51931  0.49973  1.0000
  C   C61       1.0  0.57896  0.54470  0.49986  1.0000
  C   C62       1.0  0.58480  0.56707  0.50005  1.0000
  C   C63       1.0  0.56836  0.58350  0.50018  1.0000
  C   C64       1.0  0.54599  0.57763  0.50019  1.0000
  N   N16       1.0  0.55737  0.50037  0.49951  1.0000
  H   H9        1.0  0.58989  0.46734  0.49952  1.0000
  O   O9        1.0  0.60359  0.42862  0.49968  1.0000
  O   O10       1.0  0.57351  0.39852  0.49992  1.0000
  H   H10       1.0  0.53478  0.41220  0.50004  1.0000
  H   H11       1.0  0.46865  0.41218  0.50022  1.0000
  O   O11       1.0  0.42993  0.39851  0.50019  1.0000
  O   O12       1.0  0.39984  0.42861  0.50021  1.0000
  H   H12       1.0  0.41354  0.46731  0.49998  1.0000
  H   H13       1.0  0.46864  0.58852  0.50016  1.0000
  O   O13       1.0  0.42992  0.60220  0.49991  1.0000
  O   O14       1.0  0.39983  0.57211  0.49969  1.0000
  H   H14       1.0  0.41352  0.53340  0.49963  1.0000
  H   H15       1.0  0.58987  0.53344  0.49976  1.0000
  O   O15       1.0  0.60354  0.57216  0.50012  1.0000
  O   O16       1.0  0.57343  0.60224  0.50028  1.0000
  H   H16       1.0  0.53472  0.58853  0.50030  1.0000
  Ni  Ni2       1.0  0.50171  0.50036  0.49978  1.0000
  C   C65       1.0  0.18814  0.18680  0.02382  1.0000
  C   C66       1.0  0.18815  0.18681  0.97638  1.0000
  C   C67       1.0  0.20223  0.20089  0.95265  1.0000
  C   C68       1.0  0.21631  0.21498  0.97636  1.0000
  C   C69       1.0  0.21631  0.21498  0.02383  1.0000
  C   C70       1.0  0.20223  0.20089  0.04756  1.0000
  C   C71       1.0  0.23040  0.22906  0.95263  1.0000
  C   C72       1.0  0.23040  0.22906  0.90519  1.0000
  C   C73       1.0  0.21632  0.21498  0.88146  1.0000
  C   C74       1.0  0.20223  0.20089  0.90519  1.0000
  C   C75       1.0  0.17406  0.17272  0.04755  1.0000
  C   C76       1.0  0.15998  0.15864  0.02384  1.0000
  C   C77       1.0  0.15998  0.15864  0.97637  1.0000
  C   C78       1.0  0.17406  0.17272  0.95264  1.0000
  C   C79       1.0  0.20223  0.20089  0.09502  1.0000
  C   C80       1.0  0.21631  0.21498  0.11874  1.0000
  C   C81       1.0  0.23040  0.22906  0.09501  1.0000
  C   C82       1.0  0.23040  0.22906  0.04757  1.0000
  C   C83       1.0  0.24448  0.24315  0.11874  1.0000
  C   C84       1.0  0.24449  0.24315  0.16621  1.0000
  C   C85       1.0  0.23040  0.22906  0.18994  1.0000
  C   C86       1.0  0.21631  0.21498  0.16620  1.0000
  C   C87       1.0  0.21631  0.21498  0.83399  1.0000
  C   C88       1.0  0.23040  0.22906  0.81026  1.0000
  C   C89       1.0  0.24449  0.24315  0.83400  1.0000
  C   C90       1.0  0.24449  0.24315  0.88147  1.0000
  H   H17       1.0  0.24083  0.23949  0.97022  1.0000
  H   H18       1.0  0.19181  0.19047  0.88763  1.0000
  H   H19       1.0  0.17406  0.17272  0.08270  1.0000
  H   H20       1.0  0.17406  0.17272  0.91752  1.0000
  H   H21       1.0  0.19181  0.19047  0.11259  1.0000
  H   H22       1.0  0.24083  0.23949  0.03000  1.0000
  H   H23       1.0  0.25491  0.25358  0.10118  1.0000
  O   O17       1.0  0.25821  0.25687  0.18932  1.0000
  O   O18       1.0  0.23040  0.22906  0.23616  1.0000
  H   H24       1.0  0.20589  0.20455  0.18377  1.0000
  H   H25       1.0  0.20589  0.20455  0.81643  1.0000
  O   O19       1.0  0.23040  0.22906  0.76404  1.0000
  O   O20       1.0  0.25820  0.25687  0.81089  1.0000
  H   H26       1.0  0.25491  0.25358  0.89902  1.0000
  C   C91       1.0  0.14589  0.14455  0.95263  1.0000
  C   C92       1.0  0.13180  0.13046  0.97636  1.0000
  C   C93       1.0  0.13181  0.13046  0.02383  1.0000
  C   C94       1.0  0.14589  0.14455  0.04757  1.0000
  H   H27       1.0  0.14589  0.14455  0.91751  1.0000
  O   O21       1.0  0.11808  0.11674  0.95325  1.0000
  O   O22       1.0  0.11809  0.11674  0.04694  1.0000
  H   H28       1.0  0.14589  0.14455  0.08269  1.0000
  C   C95       1.0  0.78711  0.21499  0.02384  1.0000
  C   C96       1.0  0.80119  0.20091  0.04756  1.0000
  C   C97       1.0  0.81527  0.18682  0.02383  1.0000
  C   C98       1.0  0.81527  0.18682  0.97639  1.0000
  C   C99       1.0  0.80119  0.20091  0.95265  1.0000
  C   C100      1.0  0.78711  0.21499  0.97638  1.0000
  C   C101      1.0  0.82936  0.17273  0.95266  1.0000
  C   C102      1.0  0.84343  0.15864  0.97637  1.0000
  C   C103      1.0  0.84344  0.15864  0.02383  1.0000
  C   C104      1.0  0.82935  0.17273  0.04756  1.0000
  C   C105      1.0  0.77303  0.22908  0.04757  1.0000
  C   C106      1.0  0.77302  0.22908  0.09501  1.0000
  C   C107      1.0  0.78711  0.21499  0.11875  1.0000
  C   C108      1.0  0.80119  0.20091  0.09502  1.0000
  C   C109      1.0  0.77302  0.22908  0.95264  1.0000
  C   C110      1.0  0.77303  0.22908  0.90520  1.0000
  C   C111      1.0  0.78711  0.21499  0.88147  1.0000
  C   C112      1.0  0.80119  0.20091  0.90518  1.0000
  C   C113      1.0  0.78711  0.21499  0.83400  1.0000
  C   C114      1.0  0.77302  0.22908  0.81027  1.0000
  C   C115      1.0  0.75894  0.24317  0.83400  1.0000
  C   C116      1.0  0.75894  0.24317  0.88146  1.0000
  C   C117      1.0  0.85752  0.14455  0.04757  1.0000
  C   C118      1.0  0.87160  0.13046  0.02384  1.0000
  C   C119      1.0  0.87160  0.13046  0.97638  1.0000
  C   C120      1.0  0.85752  0.14455  0.95264  1.0000
  H   H29       1.0  0.82935  0.17273  0.91751  1.0000
  H   H30       1.0  0.82935  0.17273  0.08269  1.0000
  H   H31       1.0  0.76260  0.23951  0.02999  1.0000
  H   H32       1.0  0.81161  0.19048  0.11258  1.0000
  H   H33       1.0  0.76260  0.23951  0.97021  1.0000
  H   H34       1.0  0.81161  0.19048  0.88762  1.0000
  H   H35       1.0  0.79753  0.20457  0.81644  1.0000
  O   O23       1.0  0.77302  0.22908  0.76404  1.0000
  O   O24       1.0  0.74522  0.25689  0.81088  1.0000
  H   H36       1.0  0.74852  0.25360  0.89903  1.0000
  H   H37       1.0  0.85752  0.14455  0.08270  1.0000
  O   O25       1.0  0.88532  0.11674  0.04695  1.0000
  O   O26       1.0  0.88532  0.11674  0.95326  1.0000
  H   H38       1.0  0.85752  0.14455  0.91752  1.0000
  C   C121      1.0  0.78711  0.21499  0.16622  1.0000
  C   C122      1.0  0.77303  0.22908  0.18995  1.0000
  C   C123      1.0  0.75894  0.24317  0.16621  1.0000
  C   C124      1.0  0.75894  0.24317  0.11874  1.0000
  H   H39       1.0  0.79753  0.20457  0.18378  1.0000
  O   O27       1.0  0.77303  0.22908  0.23617  1.0000
  O   O28       1.0  0.74523  0.25689  0.18932  1.0000
  H   H40       1.0  0.74852  0.25360  0.10118  1.0000
  C   C125      1.0  0.78706  0.78576  0.02384  1.0000
  C   C126      1.0  0.80114  0.79984  0.04756  1.0000
  C   C127      1.0  0.81523  0.81393  0.02383  1.0000
  C   C128      1.0  0.81523  0.81393  0.97639  1.0000
  C   C129      1.0  0.80114  0.79984  0.95265  1.0000
  C   C130      1.0  0.78705  0.78576  0.97638  1.0000
  C   C131      1.0  0.82932  0.82801  0.95266  1.0000
  C   C132      1.0  0.84340  0.84209  0.97637  1.0000
  C   C133      1.0  0.84341  0.84209  0.02383  1.0000
  C   C134      1.0  0.82932  0.82801  0.04756  1.0000
  C   C135      1.0  0.77297  0.77168  0.04757  1.0000
  C   C136      1.0  0.77297  0.77168  0.09501  1.0000
  C   C137      1.0  0.78705  0.78576  0.11875  1.0000
  C   C138      1.0  0.80114  0.79984  0.09502  1.0000
  C   C139      1.0  0.77297  0.77168  0.95264  1.0000
  C   C140      1.0  0.77297  0.77168  0.90520  1.0000
  C   C141      1.0  0.78706  0.78576  0.88147  1.0000
  C   C142      1.0  0.80114  0.79984  0.90518  1.0000
  C   C143      1.0  0.78706  0.78576  0.83400  1.0000
  C   C144      1.0  0.77297  0.77168  0.81027  1.0000
  C   C145      1.0  0.75888  0.75759  0.83400  1.0000
  C   C146      1.0  0.75888  0.75760  0.88146  1.0000
  C   C147      1.0  0.85749  0.85618  0.04757  1.0000
  C   C148      1.0  0.87158  0.87026  0.02384  1.0000
  C   C149      1.0  0.87158  0.87026  0.97638  1.0000
  C   C150      1.0  0.85749  0.85617  0.95264  1.0000
  H   H41       1.0  0.82932  0.82801  0.91751  1.0000
  H   H42       1.0  0.82932  0.82801  0.08269  1.0000
  H   H43       1.0  0.76254  0.76125  0.02999  1.0000
  H   H44       1.0  0.81157  0.81027  0.11258  1.0000
  H   H45       1.0  0.76254  0.76125  0.97021  1.0000
  H   H46       1.0  0.81157  0.81027  0.88762  1.0000
  H   H47       1.0  0.79748  0.79619  0.81644  1.0000
  O   O29       1.0  0.77297  0.77168  0.76404  1.0000
  O   O30       1.0  0.74516  0.74388  0.81088  1.0000
  H   H48       1.0  0.74845  0.74717  0.89903  1.0000
  H   H49       1.0  0.85749  0.85618  0.08270  1.0000
  O   O31       1.0  0.88530  0.88398  0.04695  1.0000
  O   O32       1.0  0.88530  0.88398  0.95326  1.0000
  H   H50       1.0  0.85749  0.85618  0.91752  1.0000
  C   C151      1.0  0.78706  0.78576  0.16622  1.0000
  C   C152      1.0  0.77297  0.77168  0.18995  1.0000
  C   C153      1.0  0.75888  0.75760  0.16621  1.0000
  C   C154      1.0  0.75888  0.75759  0.11874  1.0000
  H   H51       1.0  0.79748  0.79619  0.18378  1.0000
  O   O33       1.0  0.77297  0.77168  0.23617  1.0000
  O   O34       1.0  0.74516  0.74388  0.18932  1.0000
  H   H52       1.0  0.74845  0.74717  0.10118  1.0000
  C   C155      1.0  0.18821  0.81397  0.97638  1.0000
  C   C156      1.0  0.18821  0.81397  0.02382  1.0000
  C   C157      1.0  0.20229  0.79988  0.04755  1.0000
  C   C158      1.0  0.21637  0.78579  0.02384  1.0000
  C   C159      1.0  0.21638  0.78579  0.97637  1.0000
  C   C160      1.0  0.20229  0.79988  0.95264  1.0000
  C   C161      1.0  0.23046  0.77171  0.04757  1.0000
  C   C162      1.0  0.23046  0.77170  0.09501  1.0000
  C   C163      1.0  0.21638  0.78579  0.11874  1.0000
  C   C164      1.0  0.20229  0.79988  0.09501  1.0000
  C   C165      1.0  0.17412  0.82806  0.95265  1.0000
  C   C166      1.0  0.16004  0.84214  0.97636  1.0000
  C   C167      1.0  0.16004  0.84214  0.02383  1.0000
  C   C168      1.0  0.17413  0.82805  0.04756  1.0000
  C   C169      1.0  0.20229  0.79988  0.90518  1.0000
  C   C170      1.0  0.21637  0.78579  0.88146  1.0000
  C   C171      1.0  0.23046  0.77171  0.90519  1.0000
  C   C172      1.0  0.23046  0.77170  0.95263  1.0000
  C   C173      1.0  0.24454  0.75762  0.88146  1.0000
  C   C174      1.0  0.24454  0.75762  0.83399  1.0000
  C   C175      1.0  0.23046  0.77170  0.81026  1.0000
  C   C176      1.0  0.21637  0.78579  0.83400  1.0000
  C   C177      1.0  0.21637  0.78579  0.16621  1.0000
  C   C178      1.0  0.23046  0.77171  0.18994  1.0000
  C   C179      1.0  0.24454  0.75762  0.16620  1.0000
  C   C180      1.0  0.24454  0.75762  0.11873  1.0000
  H   H53       1.0  0.24089  0.76127  0.02998  1.0000
  H   H54       1.0  0.19187  0.81031  0.11257  1.0000
  H   H55       1.0  0.17413  0.82805  0.91750  1.0000
  H   H56       1.0  0.17413  0.82805  0.08268  1.0000
  H   H57       1.0  0.19187  0.81031  0.88761  1.0000
  H   H58       1.0  0.24089  0.76127  0.97020  1.0000
  H   H59       1.0  0.25497  0.74719  0.89902  1.0000
  O   O35       1.0  0.25826  0.74389  0.81088  1.0000
  O   O36       1.0  0.23046  0.77170  0.76404  1.0000
  H   H60       1.0  0.20595  0.79622  0.81643  1.0000
  H   H61       1.0  0.20595  0.79622  0.18377  1.0000
  O   O37       1.0  0.23046  0.77171  0.23616  1.0000
  O   O38       1.0  0.25826  0.74390  0.18931  1.0000
  H   H62       1.0  0.25497  0.74719  0.10118  1.0000
  C   C181      1.0  0.14596  0.85623  0.04757  1.0000
  C   C182      1.0  0.13187  0.87032  0.02384  1.0000
  C   C183      1.0  0.13188  0.87032  0.97637  1.0000
  C   C184      1.0  0.14596  0.85623  0.95263  1.0000
  H   H63       1.0  0.14596  0.85623  0.08269  1.0000
  O   O39       1.0  0.11816  0.88404  0.04695  1.0000
  O   O40       1.0  0.11816  0.88404  0.95326  1.0000
  H   H64       1.0  0.14596  0.85623  0.91751  1.0000
  C   C185      1.0  0.68809  0.68686  0.52372  1.0000
  C   C186      1.0  0.68809  0.68686  0.47628  1.0000
  C   C187      1.0  0.70218  0.70095  0.45255  1.0000
  C   C188      1.0  0.71626  0.71503  0.47626  1.0000
  C   C189      1.0  0.71626  0.71503  0.52373  1.0000
  C   C190      1.0  0.70218  0.70094  0.54746  1.0000
  C   C191      1.0  0.73034  0.72911  0.45253  1.0000
  C   C192      1.0  0.73035  0.72912  0.40509  1.0000
  C   C193      1.0  0.71626  0.71503  0.38136  1.0000
  C   C194      1.0  0.70218  0.70094  0.40509  1.0000
  C   C195      1.0  0.67401  0.67277  0.54745  1.0000
  C   C196      1.0  0.65993  0.65869  0.52374  1.0000
  C   C197      1.0  0.65992  0.65869  0.47627  1.0000
  C   C198      1.0  0.67401  0.67277  0.45254  1.0000
  C   C199      1.0  0.70218  0.70095  0.59492  1.0000
  C   C200      1.0  0.71626  0.71503  0.61864  1.0000
  C   C201      1.0  0.73034  0.72911  0.59491  1.0000
  C   C202      1.0  0.73035  0.72912  0.54747  1.0000
  C   C203      1.0  0.74443  0.74320  0.61864  1.0000
  C   C204      1.0  0.74443  0.74320  0.66611  1.0000
  C   C205      1.0  0.73035  0.72912  0.68984  1.0000
  C   C206      1.0  0.71626  0.71503  0.66610  1.0000
  C   C207      1.0  0.71626  0.71503  0.33389  1.0000
  C   C208      1.0  0.73034  0.72911  0.31016  1.0000
  C   C209      1.0  0.74443  0.74320  0.33390  1.0000
  C   C210      1.0  0.74443  0.74320  0.38137  1.0000
  H   H65       1.0  0.74077  0.73955  0.47012  1.0000
  H   H66       1.0  0.69175  0.69052  0.38753  1.0000
  H   H67       1.0  0.67401  0.67277  0.58260  1.0000
  H   H68       1.0  0.67401  0.67277  0.41742  1.0000
  H   H69       1.0  0.69175  0.69052  0.61249  1.0000
  H   H70       1.0  0.74077  0.73954  0.52990  1.0000
  H   H71       1.0  0.75486  0.75363  0.60108  1.0000
  O   O41       1.0  0.75815  0.75692  0.68922  1.0000
  O   O42       1.0  0.73035  0.72912  0.73606  1.0000
  H   H72       1.0  0.70584  0.70460  0.68367  1.0000
  H   H73       1.0  0.70584  0.70460  0.31633  1.0000
  O   O43       1.0  0.73034  0.72911  0.26394  1.0000
  O   O44       1.0  0.75815  0.75692  0.31079  1.0000
  H   H74       1.0  0.75486  0.75363  0.39892  1.0000
  C   C211      1.0  0.64584  0.64460  0.45253  1.0000
  C   C212      1.0  0.63175  0.63051  0.47626  1.0000
  C   C213      1.0  0.63175  0.63051  0.52373  1.0000
  C   C214      1.0  0.64584  0.64460  0.54747  1.0000
  H   H75       1.0  0.64584  0.64460  0.41741  1.0000
  O   O45       1.0  0.61803  0.61679  0.45315  1.0000
  O   O46       1.0  0.61804  0.61679  0.54684  1.0000
  H   H76       1.0  0.64584  0.64460  0.58259  1.0000
  C   C215      1.0  0.28705  0.71494  0.52374  1.0000
  C   C216      1.0  0.30113  0.70086  0.54746  1.0000
  C   C217      1.0  0.31521  0.68677  0.52373  1.0000
  C   C218      1.0  0.31522  0.68677  0.47629  1.0000
  C   C219      1.0  0.30113  0.70086  0.45255  1.0000
  C   C220      1.0  0.28705  0.71495  0.47628  1.0000
  C   C221      1.0  0.32930  0.67268  0.45256  1.0000
  C   C222      1.0  0.34338  0.65860  0.47627  1.0000
  C   C223      1.0  0.34338  0.65860  0.52373  1.0000
  C   C224      1.0  0.32930  0.67268  0.54746  1.0000
  C   C225      1.0  0.27297  0.72903  0.54747  1.0000
  C   C226      1.0  0.27296  0.72904  0.59491  1.0000
  C   C227      1.0  0.28705  0.71495  0.61865  1.0000
  C   C228      1.0  0.30113  0.70086  0.59492  1.0000
  C   C229      1.0  0.27296  0.72904  0.45254  1.0000
  C   C230      1.0  0.27297  0.72903  0.40510  1.0000
  C   C231      1.0  0.28705  0.71494  0.38137  1.0000
  C   C232      1.0  0.30113  0.70086  0.40508  1.0000
  C   C233      1.0  0.28705  0.71495  0.33390  1.0000
  C   C234      1.0  0.27296  0.72904  0.31017  1.0000
  C   C235      1.0  0.25888  0.74312  0.33390  1.0000
  C   C236      1.0  0.25888  0.74312  0.38136  1.0000
  C   C237      1.0  0.35746  0.64451  0.54747  1.0000
  C   C238      1.0  0.37155  0.63042  0.52374  1.0000
  C   C239      1.0  0.37155  0.63042  0.47628  1.0000
  C   C240      1.0  0.35746  0.64451  0.45254  1.0000
  H   H77       1.0  0.32929  0.67269  0.41741  1.0000
  H   H78       1.0  0.32930  0.67268  0.58259  1.0000
  H   H79       1.0  0.26254  0.73947  0.52989  1.0000
  H   H80       1.0  0.31155  0.69043  0.61248  1.0000
  H   H81       1.0  0.26254  0.73946  0.47011  1.0000
  H   H82       1.0  0.31155  0.69043  0.38752  1.0000
  H   H83       1.0  0.29747  0.70452  0.31634  1.0000
  O   O47       1.0  0.27296  0.72904  0.26394  1.0000
  O   O48       1.0  0.24516  0.75685  0.31078  1.0000
  H   H84       1.0  0.24846  0.75355  0.39893  1.0000
  H   H85       1.0  0.35746  0.64451  0.58260  1.0000
  O   O49       1.0  0.38526  0.61670  0.54685  1.0000
  O   O50       1.0  0.38526  0.61670  0.45316  1.0000
  H   H86       1.0  0.35746  0.64451  0.41742  1.0000
  C   C241      1.0  0.28705  0.71495  0.66612  1.0000
  C   C242      1.0  0.27297  0.72903  0.68985  1.0000
  C   C243      1.0  0.25888  0.74312  0.66611  1.0000
  C   C244      1.0  0.25888  0.74312  0.61864  1.0000
  H   H87       1.0  0.29747  0.70452  0.68368  1.0000
  O   O51       1.0  0.27297  0.72903  0.73607  1.0000
  O   O52       1.0  0.24516  0.75684  0.68922  1.0000
  H   H88       1.0  0.24846  0.75355  0.60108  1.0000
  C   C245      1.0  0.28707  0.28575  0.52374  1.0000
  C   C246      1.0  0.30116  0.29983  0.54746  1.0000
  C   C247      1.0  0.31524  0.31392  0.52373  1.0000
  C   C248      1.0  0.31524  0.31392  0.47629  1.0000
  C   C249      1.0  0.30116  0.29983  0.45255  1.0000
  C   C250      1.0  0.28707  0.28575  0.47628  1.0000
  C   C251      1.0  0.32933  0.32801  0.45256  1.0000
  C   C252      1.0  0.34341  0.34209  0.47627  1.0000
  C   C253      1.0  0.34341  0.34209  0.52373  1.0000
  C   C254      1.0  0.32933  0.32800  0.54746  1.0000
  C   C255      1.0  0.27299  0.27166  0.54747  1.0000
  C   C256      1.0  0.27299  0.27166  0.59491  1.0000
  C   C257      1.0  0.28707  0.28575  0.61865  1.0000
  C   C258      1.0  0.30116  0.29983  0.59492  1.0000
  C   C259      1.0  0.27299  0.27166  0.45254  1.0000
  C   C260      1.0  0.27299  0.27166  0.40510  1.0000
  C   C261      1.0  0.28707  0.28575  0.38137  1.0000
  C   C262      1.0  0.30116  0.29983  0.40508  1.0000
  C   C263      1.0  0.28707  0.28575  0.33390  1.0000
  C   C264      1.0  0.27299  0.27166  0.31017  1.0000
  C   C265      1.0  0.25890  0.25758  0.33390  1.0000
  C   C266      1.0  0.25890  0.25758  0.38136  1.0000
  C   C267      1.0  0.35750  0.35618  0.54747  1.0000
  C   C268      1.0  0.37158  0.37026  0.52374  1.0000
  C   C269      1.0  0.37158  0.37026  0.47628  1.0000
  C   C270      1.0  0.35750  0.35617  0.45254  1.0000
  H   H89       1.0  0.32933  0.32800  0.41741  1.0000
  H   H90       1.0  0.32933  0.32800  0.58259  1.0000
  H   H91       1.0  0.26256  0.26123  0.52989  1.0000
  H   H92       1.0  0.31158  0.31026  0.61248  1.0000
  H   H93       1.0  0.26256  0.26123  0.47011  1.0000
  H   H94       1.0  0.31158  0.31026  0.38752  1.0000
  H   H95       1.0  0.29750  0.29618  0.31634  1.0000
  O   O53       1.0  0.27299  0.27166  0.26394  1.0000
  O   O54       1.0  0.24518  0.24386  0.31078  1.0000
  H   H96       1.0  0.24848  0.24715  0.39893  1.0000
  H   H97       1.0  0.35750  0.35618  0.58260  1.0000
  O   O55       1.0  0.38530  0.38398  0.54685  1.0000
  O   O56       1.0  0.38530  0.38398  0.45316  1.0000
  H   H98       1.0  0.35750  0.35618  0.41742  1.0000
  C   C271      1.0  0.28707  0.28575  0.66612  1.0000
  C   C272      1.0  0.27299  0.27166  0.68985  1.0000
  C   C273      1.0  0.25890  0.25758  0.66611  1.0000
  C   C274      1.0  0.25890  0.25758  0.61864  1.0000
  H   H99       1.0  0.29750  0.29618  0.68368  1.0000
  O   O57       1.0  0.27299  0.27166  0.73607  1.0000
  O   O58       1.0  0.24518  0.24386  0.68922  1.0000
  H   H100      1.0  0.24848  0.24715  0.60108  1.0000
  C   C275      1.0  0.68822  0.31399  0.47628  1.0000
  C   C276      1.0  0.68823  0.31398  0.52372  1.0000
  C   C277      1.0  0.70231  0.29990  0.54745  1.0000
  C   C278      1.0  0.71639  0.28582  0.52374  1.0000
  C   C279      1.0  0.71640  0.28581  0.47627  1.0000
  C   C280      1.0  0.70231  0.29990  0.45254  1.0000
  C   C281      1.0  0.73048  0.27173  0.54747  1.0000
  C   C282      1.0  0.73048  0.27173  0.59491  1.0000
  C   C283      1.0  0.71640  0.28581  0.61864  1.0000
  C   C284      1.0  0.70231  0.29990  0.59491  1.0000
  C   C285      1.0  0.67414  0.32807  0.45255  1.0000
  C   C286      1.0  0.66005  0.34215  0.47626  1.0000
  C   C287      1.0  0.66005  0.34215  0.52373  1.0000
  C   C288      1.0  0.67414  0.32807  0.54746  1.0000
  C   C289      1.0  0.70231  0.29990  0.40508  1.0000
  C   C290      1.0  0.71639  0.28582  0.38136  1.0000
  C   C291      1.0  0.73048  0.27173  0.40509  1.0000
  C   C292      1.0  0.73048  0.27173  0.45253  1.0000
  C   C293      1.0  0.74457  0.25764  0.38136  1.0000
  C   C294      1.0  0.74457  0.25764  0.33389  1.0000
  C   C295      1.0  0.73048  0.27173  0.31016  1.0000
  C   C296      1.0  0.71640  0.28581  0.33390  1.0000
  C   C297      1.0  0.71639  0.28582  0.66611  1.0000
  C   C298      1.0  0.73048  0.27173  0.68984  1.0000
  C   C299      1.0  0.74457  0.25764  0.66610  1.0000
  C   C300      1.0  0.74457  0.25764  0.61863  1.0000
  H   H101      1.0  0.74091  0.26130  0.52988  1.0000
  H   H102      1.0  0.69188  0.31032  0.61247  1.0000
  H   H103      1.0  0.67414  0.32807  0.41740  1.0000
  H   H104      1.0  0.67414  0.32807  0.58258  1.0000
  H   H105      1.0  0.69188  0.31032  0.38751  1.0000
  H   H106      1.0  0.74091  0.26130  0.47010  1.0000
  H   H107      1.0  0.75499  0.24722  0.39892  1.0000
  O   O59       1.0  0.75829  0.24392  0.31078  1.0000
  O   O60       1.0  0.73048  0.27173  0.26394  1.0000
  H   H108      1.0  0.70597  0.29624  0.31633  1.0000
  H   H109      1.0  0.70597  0.29624  0.68367  1.0000
  O   O61       1.0  0.73048  0.27173  0.73606  1.0000
  O   O62       1.0  0.75829  0.24393  0.68921  1.0000
  H   H110      1.0  0.75500  0.24722  0.60108  1.0000
  C   C301      1.0  0.64596  0.35624  0.54747  1.0000
  C   C302      1.0  0.63188  0.37032  0.52374  1.0000
  C   C303      1.0  0.63188  0.37032  0.47627  1.0000
  C   C304      1.0  0.64597  0.35624  0.45253  1.0000
  H   H111      1.0  0.64597  0.35624  0.58259  1.0000
  O   O63       1.0  0.61816  0.38404  0.54685  1.0000
  O   O64       1.0  0.61816  0.38404  0.45316  1.0000
  H   H112      1.0  0.64597  0.35624  0.41741  1.0000
  Cu  Cu1       1.0  0.25170  0.25037  0.25010  1.0000
  Cu  Cu2       1.0  0.75176  0.25041  0.25010  1.0000
  Cu  Cu3       1.0  0.75166  0.75040  0.25000  1.0000
  Cu  Cu4       1.0  0.25171  0.75037  0.25000  1.0000
  Cu  Cu5       1.0  0.25171  0.75037  0.75010  1.0000
  Cu  Cu6       1.0  0.25170  0.25037  0.75010  1.0000
  Cu  Cu7       1.0  0.75176  0.25041  0.75010  1.0000
  Cu  Cu8       1.0  0.75166  0.75040  0.75010  1.0000
  Zn  Zn1       1.0  0.10330  0.10196  0.00010  1.0000
  Zn  Zn2       1.0  0.90011  0.10196  0.00010  1.0000
  Zn  Zn3       1.0  0.90009  0.89877  0.00010  1.0000
  Zn  Zn4       1.0  0.10335  0.89881  0.00010  1.0000
  Zn  Zn5       1.0  0.60326  0.60200  0.50010  1.0000
  Zn  Zn6       1.0  0.40007  0.60193  0.49990  1.0000
  Zn  Zn7       1.0  0.40009  0.39877  0.50010  1.0000
  Zn  Zn8       1.0  0.60336  0.39881  0.49990  1.0000
