data_image0
_chemical_formula_structural       C7NCNCNC3NCNC11NCNC7NH8C16HO2H2O2H2O2H2O2HNiC7NCNCNC3NCNC11NCNC7NH8C16HO2H2O2H2O2H2O2HNiC18HO2H2O2H2O2HC18HO2H2O2H2O2HC18HO2H2O2H2O2HC18HO2H2O2H2O2HC18HO2H2O2H2O2HC18HO2H2O2H2O2HC18HO2H2O2H2O2HC18HO2H2O2H2O2HCu8Zn8
_chemical_formula_sum              "C240 N16 H80 O64 Ni2 Cu8 Zn8"
_cell_length_a       61.4462
_cell_length_b       61.4697
_cell_length_c       21.2296
_cell_angle_alpha    90.0001
_cell_angle_beta     90
_cell_angle_gamma    89.9983

_space_group_name_H-M_alt    "P 1"
_space_group_IT_number       1

loop_
  _space_group_symop_operation_xyz
  'x, y, z'

loop_
  _atom_site_type_symbol
  _atom_site_label
  _atom_site_symmetry_multiplicity
  _atom_site_fract_x
  _atom_site_fract_y
  _atom_site_fract_z
  _atom_site_occupancy
  C   C1        1.0  0.08519  0.05079  0.00010  1.0000
  C   C2        1.0  0.09149  0.07517  0.00010  1.0000
  C   C3        1.0  0.07366  0.09302  0.00010  1.0000
  C   C4        1.0  0.04937  0.08665  0.00010  1.0000
  C   C5        1.0  0.04381  0.06238  0.00010  1.0000
  C   C6        1.0  0.06100  0.04516  0.00010  1.0000
  C   C7        1.0  0.04968  0.02296  0.00010  1.0000
  N   N1        1.0  0.02512  0.02642  0.00010  1.0000
  C   C8        1.0  0.02166  0.05101  0.00010  1.0000
  N   N2        1.0  0.00010  0.06277  0.00010  1.0000
  C   C9        1.0  0.97861  0.05102  0.00010  1.0000
  N   N3        1.0  0.97514  0.02643  0.00010  1.0000
  C   C10       1.0  0.95063  0.02295  0.00010  1.0000
  C   C11       1.0  0.93931  0.04516  0.00010  1.0000
  C   C12       1.0  0.95645  0.06238  0.00010  1.0000
  N   N4        1.0  0.97514  0.97645  0.00010  1.0000
  C   C13       1.0  0.95064  0.97992  0.00010  1.0000
  N   N5        1.0  0.93891  0.00143  0.00010  1.0000
  C   C14       1.0  0.93931  0.95771  0.00010  1.0000
  C   C15       1.0  0.95647  0.94049  0.00010  1.0000
  C   C16       1.0  0.97861  0.95186  0.00010  1.0000
  C   C17       1.0  0.95088  0.08665  0.00010  1.0000
  C   C18       1.0  0.92664  0.09304  0.00010  1.0000
  C   C19       1.0  0.90885  0.07519  0.00010  1.0000
  C   C20       1.0  0.91515  0.05080  0.00010  1.0000
  C   C21       1.0  0.95089  0.91622  0.00010  1.0000
  C   C22       1.0  0.92664  0.90983  0.00010  1.0000
  C   C23       1.0  0.90885  0.92769  0.00010  1.0000
  C   C24       1.0  0.91516  0.95207  0.00010  1.0000
  N   N6        1.0  0.02513  0.97644  0.00010  1.0000
  C   C25       1.0  0.02166  0.95187  0.00010  1.0000
  N   N7        1.0  0.00010  0.94012  0.00010  1.0000
  C   C26       1.0  0.04381  0.94049  0.00010  1.0000
  C   C27       1.0  0.06098  0.95771  0.00010  1.0000
  C   C28       1.0  0.04967  0.97991  0.00010  1.0000
  C   C29       1.0  0.08516  0.95206  0.00010  1.0000
  C   C30       1.0  0.09148  0.92768  0.00010  1.0000
  C   C31       1.0  0.07365  0.90983  0.00010  1.0000
  C   C32       1.0  0.04937  0.91622  0.00010  1.0000
  N   N8        1.0  0.06142  0.00145  0.00010  1.0000
  H   H1        1.0  0.09805  0.03754  0.00010  1.0000
  H   H2        1.0  0.03612  0.09954  0.00010  1.0000
  H   H3        1.0  0.96410  0.09955  0.00010  1.0000
  H   H4        1.0  0.90230  0.03754  0.00010  1.0000
  H   H5        1.0  0.96411  0.90333  0.00010  1.0000
  H   H6        1.0  0.90231  0.96534  0.00010  1.0000
  H   H7        1.0  0.09803  0.96532  0.00010  1.0000
  H   H8        1.0  0.03613  0.90333  0.00010  1.0000
  C   C33       1.0  0.11553  0.92106  0.00010  1.0000
  C   C34       1.0  0.12192  0.89683  0.00010  1.0000
  C   C35       1.0  0.10430  0.87918  0.00010  1.0000
  C   C36       1.0  0.08019  0.88567  0.00010  1.0000
  C   C37       1.0  0.11556  0.08181  0.00010  1.0000
  C   C38       1.0  0.12196  0.10604  0.00010  1.0000
  C   C39       1.0  0.10434  0.12369  0.00010  1.0000
  C   C40       1.0  0.08022  0.11720  0.00010  1.0000
  C   C41       1.0  0.92009  0.11722  0.00010  1.0000
  C   C42       1.0  0.89600  0.12369  0.00010  1.0000
  C   C43       1.0  0.87840  0.10602  0.00010  1.0000
  C   C44       1.0  0.88482  0.08180  0.00010  1.0000
  C   C45       1.0  0.92009  0.88565  0.00010  1.0000
  C   C46       1.0  0.89602  0.87918  0.00010  1.0000
  C   C47       1.0  0.87843  0.89682  0.00010  1.0000
  C   C48       1.0  0.88483  0.92105  0.00010  1.0000
  H   H9        1.0  0.12860  0.93410  0.00010  1.0000
  O   O1        1.0  0.14538  0.89044  0.00010  1.0000
  O   O2        1.0  0.11061  0.85561  0.00010  1.0000
  H   H10       1.0  0.06717  0.87254  0.00010  1.0000
  H   H11       1.0  0.12864  0.06877  0.00010  1.0000
  O   O3        1.0  0.14542  0.11244  0.00010  1.0000
  O   O4        1.0  0.11065  0.14727  0.00010  1.0000
  H   H12       1.0  0.06721  0.13032  0.00010  1.0000
  H   H13       1.0  0.93308  0.13034  0.00010  1.0000
  O   O5        1.0  0.88967  0.14726  0.00010  1.0000
  O   O6        1.0  0.85498  0.11242  0.00010  1.0000
  H   H14       1.0  0.87175  0.06876  0.00010  1.0000
  H   H15       1.0  0.93307  0.87255  0.00010  1.0000
  O   O7        1.0  0.88968  0.85561  0.00010  1.0000
  O   O8        1.0  0.85500  0.89043  0.00010  1.0000
  H   H16       1.0  0.87177  0.93409  0.00010  1.0000
  Ni  Ni1       1.0  0.00010  0.00144  0.00010  1.0000
  C   C49       1.0  0.41516  0.45210  0.50000  1.0000
  C   C50       1.0  0.40886  0.42772  0.50000  1.0000
  C   C51       1.0  0.42669  0.40987  0.50000  1.0000
  C   C52       1.0  0.45098  0.41624  0.50000  1.0000
  C   C53       1.0  0.45654  0.44052  0.50000  1.0000
  C   C54       1.0  0.43935  0.45773  0.50000  1.0000
  C   C55       1.0  0.45067  0.47993  0.50000  1.0000
  N   N9        1.0  0.47522  0.47647  0.50000  1.0000
  C   C56       1.0  0.47869  0.45188  0.50000  1.0000
  N   N10       1.0  0.50024  0.44012  0.50000  1.0000
  C   C57       1.0  0.52174  0.45188  0.50000  1.0000
  N   N11       1.0  0.52520  0.47647  0.50000  1.0000
  C   C58       1.0  0.54972  0.47994  0.50000  1.0000
  C   C59       1.0  0.56104  0.45773  0.50000  1.0000
  C   C60       1.0  0.54389  0.44051  0.50000  1.0000
  N   N12       1.0  0.52521  0.52644  0.50000  1.0000
  C   C61       1.0  0.54971  0.52297  0.50000  1.0000
  N   N13       1.0  0.56144  0.50146  0.50000  1.0000
  C   C62       1.0  0.56104  0.54519  0.50000  1.0000
  C   C63       1.0  0.54388  0.56240  0.50000  1.0000
  C   C64       1.0  0.52174  0.55103  0.50000  1.0000
  C   C65       1.0  0.54947  0.41624  0.50000  1.0000
  C   C66       1.0  0.57371  0.40985  0.50000  1.0000
  C   C67       1.0  0.59150  0.42770  0.50000  1.0000
  C   C68       1.0  0.58520  0.45209  0.50000  1.0000
  C   C69       1.0  0.54945  0.58667  0.50000  1.0000
  C   C70       1.0  0.57371  0.59306  0.50000  1.0000
  C   C71       1.0  0.59150  0.57520  0.50000  1.0000
  C   C72       1.0  0.58519  0.55082  0.50000  1.0000
  N   N14       1.0  0.47521  0.52645  0.50000  1.0000
  C   C73       1.0  0.47869  0.55102  0.50000  1.0000
  N   N15       1.0  0.50023  0.56278  0.50000  1.0000
  C   C74       1.0  0.45654  0.56241  0.50000  1.0000
  C   C75       1.0  0.43936  0.54518  0.50000  1.0000
  C   C76       1.0  0.45068  0.52298  0.50000  1.0000
  C   C77       1.0  0.41519  0.55083  0.50000  1.0000
  C   C78       1.0  0.40887  0.57522  0.50000  1.0000
  C   C79       1.0  0.42669  0.59306  0.50000  1.0000
  C   C80       1.0  0.45098  0.58667  0.50000  1.0000
  N   N16       1.0  0.43893  0.50144  0.50000  1.0000
  H   H17       1.0  0.40230  0.46535  0.50000  1.0000
  H   H18       1.0  0.46422  0.40335  0.50000  1.0000
  H   H19       1.0  0.53624  0.40334  0.50000  1.0000
  H   H20       1.0  0.59805  0.46535  0.50000  1.0000
  H   H21       1.0  0.53624  0.59956  0.50000  1.0000
  H   H22       1.0  0.59804  0.53756  0.50000  1.0000
  H   H23       1.0  0.40232  0.53757  0.50000  1.0000
  H   H24       1.0  0.46422  0.59957  0.50000  1.0000
  C   C81       1.0  0.38482  0.58183  0.50000  1.0000
  C   C82       1.0  0.37842  0.60606  0.50000  1.0000
  C   C83       1.0  0.39605  0.62372  0.50000  1.0000
  C   C84       1.0  0.42016  0.61723  0.50000  1.0000
  C   C85       1.0  0.38479  0.42108  0.50000  1.0000
  C   C86       1.0  0.37838  0.39685  0.50000  1.0000
  C   C87       1.0  0.39601  0.37921  0.50000  1.0000
  C   C88       1.0  0.42013  0.38569  0.50000  1.0000
  C   C89       1.0  0.58026  0.38567  0.50000  1.0000
  C   C90       1.0  0.60435  0.37920  0.50000  1.0000
  C   C91       1.0  0.62195  0.39688  0.50000  1.0000
  C   C92       1.0  0.61553  0.42109  0.50000  1.0000
  C   C93       1.0  0.58026  0.61724  0.50000  1.0000
  C   C94       1.0  0.60433  0.62372  0.50000  1.0000
  C   C95       1.0  0.62192  0.60607  0.50000  1.0000
  C   C96       1.0  0.61552  0.58185  0.50000  1.0000
  H   H25       1.0  0.37174  0.56879  0.50000  1.0000
  O   O9        1.0  0.35497  0.61246  0.50000  1.0000
  O   O10       1.0  0.38974  0.64729  0.50000  1.0000
  H   H26       1.0  0.43318  0.63036  0.50000  1.0000
  H   H27       1.0  0.37171  0.43412  0.50000  1.0000
  O   O11       1.0  0.35493  0.39045  0.50000  1.0000
  O   O12       1.0  0.38970  0.35563  0.50000  1.0000
  H   H28       1.0  0.43314  0.37258  0.50000  1.0000
  H   H29       1.0  0.56727  0.37256  0.50000  1.0000
  O   O13       1.0  0.61068  0.35563  0.50000  1.0000
  O   O14       1.0  0.64536  0.39047  0.50000  1.0000
  H   H30       1.0  0.62859  0.43414  0.50000  1.0000
  H   H31       1.0  0.56728  0.63034  0.50000  1.0000
  O   O15       1.0  0.61067  0.64728  0.50000  1.0000
  O   O16       1.0  0.64534  0.61246  0.50000  1.0000
  H   H32       1.0  0.62858  0.56881  0.50000  1.0000
  Ni  Ni2       1.0  0.50021  0.50146  0.50000  1.0000
  C   C97       1.0  0.21446  0.21666  0.06605  1.0000
  C   C98       1.0  0.22843  0.23058  0.03307  1.0000
  C   C99       1.0  0.22843  0.23058  0.96713  1.0000
  C   C100      1.0  0.21446  0.21666  0.93415  1.0000
  C   C101      1.0  0.20049  0.20273  0.96713  1.0000
  C   C102      1.0  0.20049  0.20273  0.03307  1.0000
  C   C103      1.0  0.21446  0.21666  0.86821  1.0000
  C   C104      1.0  0.22843  0.23058  0.83524  1.0000
  C   C105      1.0  0.24240  0.24451  0.86821  1.0000
  C   C106      1.0  0.24240  0.24451  0.93415  1.0000
  C   C107      1.0  0.21446  0.21666  0.13199  1.0000
  C   C108      1.0  0.22843  0.23058  0.16496  1.0000
  C   C109      1.0  0.24240  0.24451  0.13199  1.0000
  C   C110      1.0  0.24240  0.24451  0.06605  1.0000
  C   C111      1.0  0.18651  0.18880  0.06605  1.0000
  C   C112      1.0  0.17254  0.17487  0.03307  1.0000
  C   C113      1.0  0.17254  0.17487  0.96713  1.0000
  C   C114      1.0  0.18651  0.18880  0.93415  1.0000
  H   H33       1.0  0.20398  0.20621  0.84348  1.0000
  O   O17       1.0  0.22843  0.23058  0.77588  1.0000
  O   O18       1.0  0.25498  0.25704  0.83853  1.0000
  H   H34       1.0  0.25288  0.25496  0.95888  1.0000
  H   H35       1.0  0.20398  0.20621  0.15672  1.0000
  O   O19       1.0  0.22843  0.23058  0.22432  1.0000
  O   O20       1.0  0.25498  0.25704  0.16167  1.0000
  H   H36       1.0  0.25288  0.25496  0.04132  1.0000
  H   H37       1.0  0.18651  0.18880  0.11550  1.0000
  O   O21       1.0  0.15997  0.16234  0.06275  1.0000
  O   O22       1.0  0.15997  0.16234  0.93745  1.0000
  H   H38       1.0  0.18651  0.18880  0.88470  1.0000
  C   C115      1.0  0.77192  0.23058  0.03307  1.0000
  C   C116      1.0  0.78589  0.21665  0.06605  1.0000
  C   C117      1.0  0.79986  0.20272  0.03307  1.0000
  C   C118      1.0  0.79986  0.20272  0.96713  1.0000
  C   C119      1.0  0.78589  0.21665  0.93415  1.0000
  C   C120      1.0  0.77192  0.23058  0.96713  1.0000
  C   C121      1.0  0.81383  0.18879  0.93415  1.0000
  C   C122      1.0  0.82780  0.17486  0.96713  1.0000
  C   C123      1.0  0.82780  0.17486  0.03307  1.0000
  C   C124      1.0  0.81383  0.18879  0.06605  1.0000
  C   C125      1.0  0.75794  0.24450  0.06605  1.0000
  C   C126      1.0  0.75794  0.24450  0.13199  1.0000
  C   C127      1.0  0.77192  0.23058  0.16496  1.0000
  C   C128      1.0  0.78589  0.21665  0.13199  1.0000
  C   C129      1.0  0.75794  0.24450  0.93415  1.0000
  C   C130      1.0  0.75794  0.24450  0.86821  1.0000
  C   C131      1.0  0.77192  0.23058  0.83524  1.0000
  C   C132      1.0  0.78589  0.21665  0.86821  1.0000
  H   H39       1.0  0.81383  0.18879  0.88470  1.0000
  O   O23       1.0  0.84038  0.16233  0.93745  1.0000
  O   O24       1.0  0.84038  0.16233  0.06275  1.0000
  H   H40       1.0  0.81383  0.18879  0.11550  1.0000
  H   H41       1.0  0.74746  0.25495  0.04132  1.0000
  O   O25       1.0  0.74537  0.25704  0.16167  1.0000
  O   O26       1.0  0.77192  0.23058  0.22432  1.0000
  H   H42       1.0  0.79637  0.20620  0.15672  1.0000
  H   H43       1.0  0.74746  0.25495  0.95888  1.0000
  O   O27       1.0  0.74537  0.25704  0.83853  1.0000
  O   O28       1.0  0.77192  0.23058  0.77588  1.0000
  H   H44       1.0  0.79637  0.20620  0.84348  1.0000
  C   C133      1.0  0.77195  0.77228  0.96713  1.0000
  C   C134      1.0  0.78592  0.78620  0.93415  1.0000
  C   C135      1.0  0.79990  0.80013  0.96713  1.0000
  C   C136      1.0  0.79990  0.80013  0.03307  1.0000
  C   C137      1.0  0.78592  0.78620  0.06605  1.0000
  C   C138      1.0  0.77195  0.77228  0.03307  1.0000
  C   C139      1.0  0.81387  0.81405  0.06605  1.0000
  C   C140      1.0  0.82785  0.82798  0.03307  1.0000
  C   C141      1.0  0.82785  0.82798  0.96713  1.0000
  C   C142      1.0  0.81387  0.81405  0.93415  1.0000
  C   C143      1.0  0.75798  0.75835  0.93415  1.0000
  C   C144      1.0  0.75798  0.75835  0.86821  1.0000
  C   C145      1.0  0.77195  0.77228  0.83524  1.0000
  C   C146      1.0  0.78592  0.78620  0.86821  1.0000
  C   C147      1.0  0.75798  0.75835  0.06605  1.0000
  C   C148      1.0  0.75798  0.75835  0.13199  1.0000
  C   C149      1.0  0.77195  0.77228  0.16496  1.0000
  C   C150      1.0  0.78592  0.78620  0.13199  1.0000
  H   H45       1.0  0.81387  0.81405  0.11550  1.0000
  O   O29       1.0  0.84042  0.84051  0.06275  1.0000
  O   O30       1.0  0.84042  0.84051  0.93745  1.0000
  H   H46       1.0  0.81387  0.81405  0.88470  1.0000
  H   H47       1.0  0.74750  0.74791  0.95888  1.0000
  O   O31       1.0  0.74540  0.74582  0.83853  1.0000
  O   O32       1.0  0.77195  0.77228  0.77588  1.0000
  H   H48       1.0  0.79640  0.79665  0.84348  1.0000
  H   H49       1.0  0.74750  0.74791  0.04132  1.0000
  O   O33       1.0  0.74540  0.74582  0.16167  1.0000
  O   O34       1.0  0.77195  0.77228  0.22432  1.0000
  H   H50       1.0  0.79641  0.79665  0.15672  1.0000
  C   C151      1.0  0.21442  0.78620  0.93415  1.0000
  C   C152      1.0  0.22839  0.77228  0.96713  1.0000
  C   C153      1.0  0.22839  0.77228  0.03307  1.0000
  C   C154      1.0  0.21442  0.78620  0.06605  1.0000
  C   C155      1.0  0.20044  0.80013  0.03307  1.0000
  C   C156      1.0  0.20044  0.80013  0.96713  1.0000
  C   C157      1.0  0.21442  0.78620  0.13199  1.0000
  C   C158      1.0  0.22839  0.77228  0.16496  1.0000
  C   C159      1.0  0.24237  0.75835  0.13199  1.0000
  C   C160      1.0  0.24237  0.75835  0.06605  1.0000
  C   C161      1.0  0.21442  0.78620  0.86821  1.0000
  C   C162      1.0  0.22839  0.77228  0.83524  1.0000
  C   C163      1.0  0.24237  0.75835  0.86821  1.0000
  C   C164      1.0  0.24237  0.75835  0.93415  1.0000
  C   C165      1.0  0.18647  0.81405  0.93415  1.0000
  C   C166      1.0  0.17249  0.82798  0.96713  1.0000
  C   C167      1.0  0.17249  0.82798  0.03307  1.0000
  C   C168      1.0  0.18647  0.81405  0.06605  1.0000
  H   H51       1.0  0.20393  0.79665  0.15672  1.0000
  O   O35       1.0  0.22839  0.77228  0.22432  1.0000
  O   O36       1.0  0.25494  0.74582  0.16167  1.0000
  H   H52       1.0  0.25285  0.74791  0.04132  1.0000
  H   H53       1.0  0.20393  0.79665  0.84348  1.0000
  O   O37       1.0  0.22839  0.77228  0.77588  1.0000
  O   O38       1.0  0.25494  0.74582  0.83853  1.0000
  H   H54       1.0  0.25285  0.74791  0.95888  1.0000
  H   H55       1.0  0.18647  0.81405  0.88470  1.0000
  O   O39       1.0  0.15991  0.84051  0.93745  1.0000
  O   O40       1.0  0.15991  0.84051  0.06275  1.0000
  H   H56       1.0  0.18647  0.81405  0.11550  1.0000
  C   C169      1.0  0.71442  0.71669  0.56595  1.0000
  C   C170      1.0  0.72840  0.73062  0.53297  1.0000
  C   C171      1.0  0.72840  0.73062  0.46703  1.0000
  C   C172      1.0  0.71442  0.71669  0.43405  1.0000
  C   C173      1.0  0.70045  0.70277  0.46703  1.0000
  C   C174      1.0  0.70045  0.70277  0.53297  1.0000
  C   C175      1.0  0.71442  0.71669  0.36811  1.0000
  C   C176      1.0  0.72840  0.73062  0.33514  1.0000
  C   C177      1.0  0.74237  0.74454  0.36811  1.0000
  C   C178      1.0  0.74237  0.74454  0.43405  1.0000
  C   C179      1.0  0.71442  0.71669  0.63189  1.0000
  C   C180      1.0  0.72840  0.73062  0.66486  1.0000
  C   C181      1.0  0.74237  0.74454  0.63189  1.0000
  C   C182      1.0  0.74237  0.74454  0.56595  1.0000
  C   C183      1.0  0.68648  0.68884  0.56595  1.0000
  C   C184      1.0  0.67250  0.67492  0.53297  1.0000
  C   C185      1.0  0.67250  0.67492  0.46703  1.0000
  C   C186      1.0  0.68648  0.68884  0.43405  1.0000
  H   H57       1.0  0.70394  0.70625  0.34338  1.0000
  O   O41       1.0  0.72840  0.73062  0.27578  1.0000
  O   O42       1.0  0.75495  0.75707  0.33843  1.0000
  H   H58       1.0  0.75285  0.75498  0.45878  1.0000
  H   H59       1.0  0.70394  0.70625  0.65662  1.0000
  O   O43       1.0  0.72840  0.73062  0.72422  1.0000
  O   O44       1.0  0.75495  0.75707  0.66157  1.0000
  H   H60       1.0  0.75285  0.75498  0.54122  1.0000
  H   H61       1.0  0.68648  0.68884  0.61541  1.0000
  O   O45       1.0  0.65992  0.66238  0.56265  1.0000
  O   O46       1.0  0.65992  0.66238  0.43735  1.0000
  H   H62       1.0  0.68648  0.68884  0.38460  1.0000
  C   C187      1.0  0.27196  0.73062  0.53297  1.0000
  C   C188      1.0  0.28593  0.71669  0.56595  1.0000
  C   C189      1.0  0.29991  0.70277  0.53297  1.0000
  C   C190      1.0  0.29991  0.70277  0.46703  1.0000
  C   C191      1.0  0.28593  0.71669  0.43405  1.0000
  C   C192      1.0  0.27196  0.73062  0.46703  1.0000
  C   C193      1.0  0.31388  0.68884  0.43405  1.0000
  C   C194      1.0  0.32786  0.67492  0.46703  1.0000
  C   C195      1.0  0.32786  0.67492  0.53297  1.0000
  C   C196      1.0  0.31388  0.68884  0.56595  1.0000
  C   C197      1.0  0.25798  0.74454  0.56595  1.0000
  C   C198      1.0  0.25798  0.74454  0.63189  1.0000
  C   C199      1.0  0.27196  0.73062  0.66486  1.0000
  C   C200      1.0  0.28593  0.71669  0.63189  1.0000
  C   C201      1.0  0.25798  0.74454  0.43405  1.0000
  C   C202      1.0  0.25798  0.74454  0.36811  1.0000
  C   C203      1.0  0.27196  0.73062  0.33514  1.0000
  C   C204      1.0  0.28593  0.71669  0.36811  1.0000
  H   H63       1.0  0.31388  0.68884  0.38460  1.0000
  O   O47       1.0  0.34043  0.66239  0.43735  1.0000
  O   O48       1.0  0.34043  0.66239  0.56265  1.0000
  H   H64       1.0  0.31388  0.68884  0.61541  1.0000
  H   H65       1.0  0.24750  0.75499  0.54122  1.0000
  O   O49       1.0  0.24540  0.75708  0.66157  1.0000
  O   O50       1.0  0.27196  0.73062  0.72422  1.0000
  H   H66       1.0  0.29641  0.70625  0.65662  1.0000
  H   H67       1.0  0.24750  0.75499  0.45878  1.0000
  O   O51       1.0  0.24540  0.75708  0.33843  1.0000
  O   O52       1.0  0.27196  0.73062  0.27578  1.0000
  H   H68       1.0  0.29641  0.70625  0.34338  1.0000
  C   C205      1.0  0.27192  0.27231  0.46703  1.0000
  C   C206      1.0  0.28589  0.28624  0.43405  1.0000
  C   C207      1.0  0.29986  0.30017  0.46703  1.0000
  C   C208      1.0  0.29986  0.30017  0.53297  1.0000
  C   C209      1.0  0.28589  0.28624  0.56595  1.0000
  C   C210      1.0  0.27192  0.27231  0.53297  1.0000
  C   C211      1.0  0.31383  0.31409  0.56595  1.0000
  C   C212      1.0  0.32780  0.32802  0.53297  1.0000
  C   C213      1.0  0.32780  0.32802  0.46703  1.0000
  C   C214      1.0  0.31383  0.31409  0.43406  1.0000
  C   C215      1.0  0.25794  0.25838  0.43405  1.0000
  C   C216      1.0  0.25794  0.25838  0.36811  1.0000
  C   C217      1.0  0.27192  0.27231  0.33514  1.0000
  C   C218      1.0  0.28589  0.28624  0.36811  1.0000
  C   C219      1.0  0.25794  0.25838  0.56595  1.0000
  C   C220      1.0  0.25794  0.25838  0.63189  1.0000
  C   C221      1.0  0.27192  0.27231  0.66486  1.0000
  C   C222      1.0  0.28589  0.28624  0.63189  1.0000
  H   H69       1.0  0.31383  0.31409  0.61541  1.0000
  O   O53       1.0  0.34038  0.34056  0.56265  1.0000
  O   O54       1.0  0.34038  0.34056  0.43735  1.0000
  H   H70       1.0  0.31383  0.31409  0.38460  1.0000
  H   H71       1.0  0.24746  0.24794  0.45878  1.0000
  O   O55       1.0  0.24537  0.24585  0.33843  1.0000
  O   O56       1.0  0.27192  0.27231  0.27579  1.0000
  H   H72       1.0  0.29637  0.29668  0.34338  1.0000
  H   H73       1.0  0.24746  0.24794  0.54122  1.0000
  O   O57       1.0  0.24537  0.24585  0.66157  1.0000
  O   O58       1.0  0.27192  0.27231  0.72422  1.0000
  H   H74       1.0  0.29637  0.29668  0.65662  1.0000
  C   C223      1.0  0.71447  0.28625  0.56595  1.0000
  C   C224      1.0  0.72844  0.27232  0.53297  1.0000
  C   C225      1.0  0.72844  0.27232  0.46703  1.0000
  C   C226      1.0  0.71447  0.28625  0.43405  1.0000
  C   C227      1.0  0.70049  0.30018  0.46703  1.0000
  C   C228      1.0  0.70049  0.30018  0.53297  1.0000
  C   C229      1.0  0.71447  0.28625  0.36811  1.0000
  C   C230      1.0  0.72844  0.27232  0.33514  1.0000
  C   C231      1.0  0.74241  0.25839  0.36811  1.0000
  C   C232      1.0  0.74241  0.25839  0.43405  1.0000
  C   C233      1.0  0.71447  0.28625  0.63189  1.0000
  C   C234      1.0  0.72844  0.27232  0.66486  1.0000
  C   C235      1.0  0.74241  0.25839  0.63189  1.0000
  C   C236      1.0  0.74241  0.25839  0.56595  1.0000
  C   C237      1.0  0.68652  0.31411  0.56595  1.0000
  C   C238      1.0  0.67255  0.32803  0.53297  1.0000
  C   C239      1.0  0.67255  0.32803  0.46703  1.0000
  C   C240      1.0  0.68652  0.31411  0.43405  1.0000
  H   H75       1.0  0.70399  0.29670  0.34338  1.0000
  O   O59       1.0  0.72844  0.27232  0.27578  1.0000
  O   O60       1.0  0.75498  0.24586  0.33843  1.0000
  H   H76       1.0  0.75289  0.24795  0.45878  1.0000
  H   H77       1.0  0.70399  0.29670  0.65662  1.0000
  O   O61       1.0  0.72844  0.27232  0.72422  1.0000
  O   O62       1.0  0.75498  0.24586  0.66157  1.0000
  H   H78       1.0  0.75289  0.24795  0.54122  1.0000
  H   H79       1.0  0.68652  0.31411  0.61541  1.0000
  O   O63       1.0  0.65998  0.34057  0.56265  1.0000
  O   O64       1.0  0.65998  0.34057  0.43735  1.0000
  H   H80       1.0  0.68652  0.31411  0.38460  1.0000
  Cu  Cu1       1.0  0.25017  0.25145  0.25010  1.0000
  Cu  Cu2       1.0  0.75018  0.25145  0.25010  1.0000
  Cu  Cu3       1.0  0.75017  0.75145  0.25000  1.0000
  Cu  Cu4       1.0  0.25017  0.75145  0.25000  1.0000
  Cu  Cu5       1.0  0.25017  0.75145  0.75010  1.0000
  Cu  Cu6       1.0  0.25017  0.25145  0.75010  1.0000
  Cu  Cu7       1.0  0.75018  0.25145  0.75010  1.0000
  Cu  Cu8       1.0  0.75017  0.75145  0.75010  1.0000
  Zn  Zn1       1.0  0.14400  0.14609  0.00010  1.0000
  Zn  Zn2       1.0  0.85635  0.14608  0.00010  1.0000
  Zn  Zn3       1.0  0.85638  0.85676  0.00010  1.0000
  Zn  Zn4       1.0  0.14395  0.85676  0.00010  1.0000
  Zn  Zn5       1.0  0.64397  0.64613  0.50000  1.0000
  Zn  Zn6       1.0  0.35639  0.64613  0.50000  1.0000
  Zn  Zn7       1.0  0.35635  0.35680  0.50000  1.0000
  Zn  Zn8       1.0  0.64400  0.35681  0.50000  1.0000
