data_image0
_chemical_formula_structural       C7NCNCNC3NCNC11NCNC7NH8C16HO2H2O2H2O2H2O2HNiC7NCNCNC3NCNC11NCNC7NH8C16HO2H2O2H2O2H2O2HNiC6O6C6O6C6O6C6O6C6O6C6O6C6O6C6O6Cu8Zn8
_chemical_formula_sum              "C144 N16 H32 O64 Ni2 Cu8 Zn8"
_cell_length_a       51.1462
_cell_length_b       51.195
_cell_length_c       12.8294
_cell_angle_alpha    90
_cell_angle_beta     90
_cell_angle_gamma    89.9973

_space_group_name_H-M_alt    "P 1"
_space_group_IT_number       1

loop_
  _space_group_symop_operation_xyz
  'x, y, z'

loop_
  _atom_site_type_symbol
  _atom_site_label
  _atom_site_symmetry_multiplicity
  _atom_site_fract_x
  _atom_site_fract_y
  _atom_site_fract_z
  _atom_site_occupancy
  C   C1        1.0  0.10241  0.06100  0.00010  1.0000
  C   C2        1.0  0.10999  0.09027  0.00010  1.0000
  C   C3        1.0  0.08857  0.11170  0.00010  1.0000
  C   C4        1.0  0.05939  0.10406  0.00010  1.0000
  C   C5        1.0  0.05270  0.07491  0.00010  1.0000
  C   C6        1.0  0.07336  0.05424  0.00010  1.0000
  C   C7        1.0  0.05975  0.02759  0.00010  1.0000
  N   N1        1.0  0.03025  0.03174  0.00010  1.0000
  C   C8        1.0  0.02609  0.06127  0.00010  1.0000
  N   N2        1.0  0.00010  0.07540  0.00010  1.0000
  C   C9        1.0  0.97437  0.06128  0.00010  1.0000
  N   N3        1.0  0.97021  0.03176  0.00010  1.0000
  C   C10       1.0  0.94075  0.02759  0.00010  1.0000
  C   C11       1.0  0.92716  0.05425  0.00010  1.0000
  C   C12       1.0  0.94776  0.07493  0.00010  1.0000
  N   N4        1.0  0.97019  0.97175  0.00010  1.0000
  C   C13       1.0  0.94076  0.97592  0.00010  1.0000
  N   N5        1.0  0.92667  0.00175  0.00010  1.0000
  C   C14       1.0  0.92715  0.94925  0.00010  1.0000
  C   C15       1.0  0.94776  0.92858  0.00010  1.0000
  C   C16       1.0  0.97436  0.94223  0.00010  1.0000
  C   C17       1.0  0.94106  0.10407  0.00010  1.0000
  C   C18       1.0  0.91194  0.11174  0.00010  1.0000
  C   C19       1.0  0.89057  0.09031  0.00010  1.0000
  C   C20       1.0  0.89813  0.06103  0.00010  1.0000
  C   C21       1.0  0.94106  0.89944  0.00010  1.0000
  C   C22       1.0  0.91192  0.89177  0.00010  1.0000
  C   C23       1.0  0.89055  0.91321  0.00010  1.0000
  C   C24       1.0  0.89813  0.94249  0.00010  1.0000
  N   N6        1.0  0.03026  0.97173  0.00010  1.0000
  C   C25       1.0  0.02608  0.94223  0.00010  1.0000
  N   N7        1.0  0.00010  0.92812  0.00010  1.0000
  C   C26       1.0  0.05269  0.92856  0.00010  1.0000
  C   C27       1.0  0.07332  0.94924  0.00010  1.0000
  C   C28       1.0  0.05973  0.97590  0.00010  1.0000
  C   C29       1.0  0.10237  0.94245  0.00010  1.0000
  C   C30       1.0  0.10995  0.91317  0.00010  1.0000
  C   C31       1.0  0.08854  0.89175  0.00010  1.0000
  C   C32       1.0  0.05936  0.89942  0.00010  1.0000
  N   N8        1.0  0.07385  0.00176  0.00010  1.0000
  H   H1        1.0  0.11787  0.04509  0.00010  1.0000
  H   H2        1.0  0.04348  0.11954  0.00010  1.0000
  H   H3        1.0  0.95695  0.11956  0.00010  1.0000
  H   H4        1.0  0.88269  0.04511  0.00010  1.0000
  H   H5        1.0  0.95693  0.88396  0.00010  1.0000
  H   H6        1.0  0.88270  0.95842  0.00010  1.0000
  H   H7        1.0  0.11783  0.95837  0.00010  1.0000
  H   H8        1.0  0.04345  0.88394  0.00010  1.0000
  C   C33       1.0  0.13885  0.90523  0.00010  1.0000
  C   C34       1.0  0.14653  0.87613  0.00010  1.0000
  C   C35       1.0  0.12535  0.85494  0.00010  1.0000
  C   C36       1.0  0.09639  0.86273  0.00010  1.0000
  C   C37       1.0  0.13891  0.09824  0.00010  1.0000
  C   C38       1.0  0.14660  0.12733  0.00010  1.0000
  C   C39       1.0  0.12543  0.14852  0.00010  1.0000
  C   C40       1.0  0.09645  0.14073  0.00010  1.0000
  C   C41       1.0  0.90408  0.14078  0.00010  1.0000
  C   C42       1.0  0.87513  0.14855  0.00010  1.0000
  C   C43       1.0  0.85399  0.12734  0.00010  1.0000
  C   C44       1.0  0.86169  0.09826  0.00010  1.0000
  C   C45       1.0  0.90405  0.86274  0.00010  1.0000
  C   C46       1.0  0.87513  0.85496  0.00010  1.0000
  C   C47       1.0  0.85400  0.87615  0.00010  1.0000
  C   C48       1.0  0.86169  0.90524  0.00010  1.0000
  H   H9        1.0  0.15456  0.92088  0.00010  1.0000
  O   O1        1.0  0.17470  0.86845  0.00010  1.0000
  O   O2        1.0  0.13294  0.82663  0.00010  1.0000
  H   H10       1.0  0.08074  0.84697  0.00010  1.0000
  H   H11       1.0  0.15462  0.08258  0.00010  1.0000
  O   O3        1.0  0.17479  0.13501  0.00010  1.0000
  O   O4        1.0  0.13301  0.17683  0.00010  1.0000
  H   H12       1.0  0.08083  0.15649  0.00010  1.0000
  H   H13       1.0  0.91968  0.15653  0.00010  1.0000
  O   O5        1.0  0.86753  0.17686  0.00010  1.0000
  O   O6        1.0  0.82586  0.13503  0.00010  1.0000
  H   H14       1.0  0.84600  0.08260  0.00010  1.0000
  H   H15       1.0  0.91964  0.84701  0.00010  1.0000
  O   O7        1.0  0.86751  0.82667  0.00010  1.0000
  O   O8        1.0  0.82586  0.86848  0.00010  1.0000
  H   H16       1.0  0.84600  0.92090  0.00010  1.0000
  Ni  Ni1       1.0  0.00010  0.00175  0.00010  1.0000
  C   C49       1.0  0.39814  0.44252  0.50000  1.0000
  C   C50       1.0  0.39056  0.41325  0.50000  1.0000
  C   C51       1.0  0.41198  0.39181  0.50000  1.0000
  C   C52       1.0  0.44116  0.39946  0.50000  1.0000
  C   C53       1.0  0.44784  0.42861  0.50000  1.0000
  C   C54       1.0  0.42719  0.44928  0.50000  1.0000
  C   C55       1.0  0.44080  0.47593  0.50000  1.0000
  N   N9        1.0  0.47030  0.47178  0.50000  1.0000
  C   C56       1.0  0.47446  0.44226  0.50000  1.0000
  N   N10       1.0  0.50034  0.42813  0.50000  1.0000
  C   C57       1.0  0.52618  0.44224  0.50000  1.0000
  N   N11       1.0  0.53034  0.47176  0.50000  1.0000
  C   C58       1.0  0.55979  0.47593  0.50000  1.0000
  C   C59       1.0  0.57339  0.44927  0.50000  1.0000
  C   C60       1.0  0.55279  0.42859  0.50000  1.0000
  N   N12       1.0  0.53035  0.53177  0.50000  1.0000
  C   C61       1.0  0.55979  0.52760  0.50000  1.0000
  N   N13       1.0  0.57388  0.50178  0.50000  1.0000
  C   C62       1.0  0.57340  0.55428  0.50000  1.0000
  C   C63       1.0  0.55278  0.57494  0.50000  1.0000
  C   C64       1.0  0.52619  0.56129  0.50000  1.0000
  C   C65       1.0  0.55949  0.39945  0.50000  1.0000
  C   C66       1.0  0.58861  0.39178  0.50000  1.0000
  C   C67       1.0  0.60998  0.41321  0.50000  1.0000
  C   C68       1.0  0.60241  0.44249  0.50000  1.0000
  C   C69       1.0  0.55948  0.60409  0.50000  1.0000
  C   C70       1.0  0.58863  0.61176  0.50000  1.0000
  C   C71       1.0  0.60999  0.59031  0.50000  1.0000
  C   C72       1.0  0.60242  0.56104  0.50000  1.0000
  N   N14       1.0  0.47029  0.53179  0.50000  1.0000
  C   C73       1.0  0.47447  0.56129  0.50000  1.0000
  N   N15       1.0  0.50034  0.57540  0.50000  1.0000
  C   C74       1.0  0.44786  0.57496  0.50000  1.0000
  C   C75       1.0  0.42722  0.55428  0.50000  1.0000
  C   C76       1.0  0.44082  0.52762  0.50000  1.0000
  C   C77       1.0  0.39818  0.56106  0.50000  1.0000
  C   C78       1.0  0.39059  0.59035  0.50000  1.0000
  C   C79       1.0  0.41200  0.61177  0.50000  1.0000
  C   C80       1.0  0.44118  0.60410  0.50000  1.0000
  N   N16       1.0  0.42669  0.50176  0.50000  1.0000
  H   H17       1.0  0.38268  0.45843  0.50000  1.0000
  H   H18       1.0  0.45707  0.38398  0.50000  1.0000
  H   H19       1.0  0.54360  0.38397  0.50000  1.0000
  H   H20       1.0  0.61786  0.45841  0.50000  1.0000
  H   H21       1.0  0.54361  0.61957  0.50000  1.0000
  H   H22       1.0  0.61785  0.54511  0.50000  1.0000
  H   H23       1.0  0.38271  0.54515  0.50000  1.0000
  H   H24       1.0  0.45709  0.61958  0.50000  1.0000
  C   C81       1.0  0.36170  0.59829  0.50000  1.0000
  C   C82       1.0  0.35401  0.62739  0.50000  1.0000
  C   C83       1.0  0.37519  0.64858  0.50000  1.0000
  C   C84       1.0  0.40416  0.64079  0.50000  1.0000
  C   C85       1.0  0.36164  0.40528  0.50000  1.0000
  C   C86       1.0  0.35395  0.37619  0.50000  1.0000
  C   C87       1.0  0.37512  0.35500  0.50000  1.0000
  C   C88       1.0  0.40410  0.36279  0.50000  1.0000
  C   C89       1.0  0.59647  0.36274  0.50000  1.0000
  C   C90       1.0  0.62542  0.35497  0.50000  1.0000
  C   C91       1.0  0.64656  0.37619  0.50000  1.0000
  C   C92       1.0  0.63886  0.40527  0.50000  1.0000
  C   C93       1.0  0.59650  0.64079  0.50000  1.0000
  C   C94       1.0  0.62541  0.64856  0.50000  1.0000
  C   C95       1.0  0.64655  0.62737  0.50000  1.0000
  C   C96       1.0  0.63885  0.59829  0.50000  1.0000
  H   H25       1.0  0.34598  0.58263  0.50000  1.0000
  O   O9        1.0  0.32584  0.63507  0.50000  1.0000
  O   O10       1.0  0.36761  0.67688  0.50000  1.0000
  H   H26       1.0  0.41980  0.65655  0.50000  1.0000
  H   H27       1.0  0.34593  0.42094  0.50000  1.0000
  O   O11       1.0  0.32576  0.36850  0.50000  1.0000
  O   O12       1.0  0.36754  0.32669  0.50000  1.0000
  H   H28       1.0  0.41973  0.34703  0.50000  1.0000
  H   H29       1.0  0.58087  0.34700  0.50000  1.0000
  O   O13       1.0  0.63302  0.32667  0.50000  1.0000
  O   O14       1.0  0.67469  0.36850  0.50000  1.0000
  H   H30       1.0  0.65455  0.42093  0.50000  1.0000
  H   H31       1.0  0.58090  0.65652  0.50000  1.0000
  O   O15       1.0  0.63303  0.67685  0.50000  1.0000
  O   O16       1.0  0.67469  0.63504  0.50000  1.0000
  H   H32       1.0  0.65455  0.58263  0.50000  1.0000
  Ni  Ni2       1.0  0.50032  0.50177  0.50000  1.0000
  C   C97       1.0  0.24107  0.24329  0.94554  1.0000
  C   C98       1.0  0.24107  0.24329  0.05466  1.0000
  C   C99       1.0  0.22429  0.22656  0.10923  1.0000
  C   C100      1.0  0.20752  0.20983  0.05466  1.0000
  C   C101      1.0  0.20752  0.20983  0.94554  1.0000
  C   C102      1.0  0.22429  0.22656  0.89098  1.0000
  O   O17       1.0  0.25617  0.25835  0.89643  1.0000
  O   O18       1.0  0.25617  0.25835  0.10377  1.0000
  O   O19       1.0  0.22429  0.22656  0.20744  1.0000
  O   O20       1.0  0.19242  0.19478  0.10377  1.0000
  O   O21       1.0  0.19242  0.19478  0.89643  1.0000
  O   O22       1.0  0.22429  0.22656  0.79277  1.0000
  C   C103      1.0  0.75952  0.24333  0.94554  1.0000
  C   C104      1.0  0.75952  0.24333  0.05466  1.0000
  C   C105      1.0  0.77630  0.22660  0.10923  1.0000
  C   C106      1.0  0.79308  0.20987  0.05466  1.0000
  C   C107      1.0  0.79308  0.20987  0.94554  1.0000
  C   C108      1.0  0.77630  0.22660  0.89098  1.0000
  O   O23       1.0  0.74442  0.25839  0.89643  1.0000
  O   O24       1.0  0.74442  0.25839  0.10377  1.0000
  O   O25       1.0  0.77630  0.22660  0.20744  1.0000
  O   O26       1.0  0.80818  0.19482  0.10377  1.0000
  O   O27       1.0  0.80818  0.19482  0.89643  1.0000
  O   O28       1.0  0.77630  0.22660  0.79277  1.0000
  C   C109      1.0  0.75952  0.76019  0.94554  1.0000
  C   C110      1.0  0.75952  0.76019  0.05466  1.0000
  C   C111      1.0  0.77630  0.77691  0.10923  1.0000
  C   C112      1.0  0.79308  0.79364  0.05466  1.0000
  C   C113      1.0  0.79308  0.79364  0.94554  1.0000
  C   C114      1.0  0.77630  0.77691  0.89098  1.0000
  O   O29       1.0  0.74441  0.74513  0.89643  1.0000
  O   O30       1.0  0.74441  0.74513  0.10377  1.0000
  O   O31       1.0  0.77630  0.77691  0.20744  1.0000
  O   O32       1.0  0.80818  0.80870  0.10377  1.0000
  O   O33       1.0  0.80818  0.80870  0.89643  1.0000
  O   O34       1.0  0.77630  0.77691  0.79277  1.0000
  C   C115      1.0  0.24098  0.76014  0.05466  1.0000
  C   C116      1.0  0.24098  0.76014  0.94554  1.0000
  C   C117      1.0  0.22420  0.77686  0.89097  1.0000
  C   C118      1.0  0.20741  0.79359  0.94554  1.0000
  C   C119      1.0  0.20741  0.79359  0.05466  1.0000
  C   C120      1.0  0.22420  0.77686  0.10922  1.0000
  O   O35       1.0  0.25609  0.74509  0.10377  1.0000
  O   O36       1.0  0.25609  0.74509  0.89643  1.0000
  O   O37       1.0  0.22420  0.77686  0.79276  1.0000
  O   O38       1.0  0.19231  0.80864  0.89643  1.0000
  O   O39       1.0  0.19231  0.80864  0.10377  1.0000
  O   O40       1.0  0.22420  0.77686  0.20743  1.0000
  C   C121      1.0  0.74103  0.74334  0.44544  1.0000
  C   C122      1.0  0.74103  0.74334  0.55456  1.0000
  C   C123      1.0  0.72425  0.72661  0.60913  1.0000
  C   C124      1.0  0.70747  0.70988  0.55456  1.0000
  C   C125      1.0  0.70747  0.70988  0.44544  1.0000
  C   C126      1.0  0.72425  0.72661  0.39088  1.0000
  O   O41       1.0  0.75613  0.75839  0.39633  1.0000
  O   O42       1.0  0.75613  0.75839  0.60367  1.0000
  O   O43       1.0  0.72425  0.72661  0.70734  1.0000
  O   O44       1.0  0.69237  0.69483  0.60367  1.0000
  O   O45       1.0  0.69237  0.69483  0.39633  1.0000
  O   O46       1.0  0.72425  0.72661  0.29267  1.0000
  C   C127      1.0  0.25956  0.74337  0.55456  1.0000
  C   C128      1.0  0.25956  0.74337  0.44544  1.0000
  C   C129      1.0  0.27635  0.72665  0.39087  1.0000
  C   C130      1.0  0.29313  0.70992  0.44544  1.0000
  C   C131      1.0  0.29313  0.70992  0.55456  1.0000
  C   C132      1.0  0.27635  0.72665  0.60912  1.0000
  O   O47       1.0  0.24445  0.75842  0.60367  1.0000
  O   O48       1.0  0.24445  0.75842  0.39633  1.0000
  O   O49       1.0  0.27635  0.72665  0.29266  1.0000
  O   O50       1.0  0.30824  0.69487  0.39633  1.0000
  O   O51       1.0  0.30824  0.69487  0.60367  1.0000
  O   O52       1.0  0.27635  0.72665  0.70733  1.0000
  C   C133      1.0  0.25948  0.26022  0.44544  1.0000
  C   C134      1.0  0.25948  0.26022  0.55456  1.0000
  C   C135      1.0  0.27626  0.27695  0.60913  1.0000
  C   C136      1.0  0.29304  0.29368  0.55456  1.0000
  C   C137      1.0  0.29304  0.29368  0.44544  1.0000
  C   C138      1.0  0.27626  0.27695  0.39088  1.0000
  O   O53       1.0  0.24439  0.24516  0.39633  1.0000
  O   O54       1.0  0.24439  0.24516  0.60367  1.0000
  O   O55       1.0  0.27626  0.27695  0.70734  1.0000
  O   O56       1.0  0.30814  0.30874  0.60367  1.0000
  O   O57       1.0  0.30814  0.30874  0.39633  1.0000
  O   O58       1.0  0.27626  0.27695  0.29267  1.0000
  C   C139      1.0  0.74104  0.26020  0.55456  1.0000
  C   C140      1.0  0.74104  0.26020  0.44544  1.0000
  C   C141      1.0  0.72426  0.27692  0.39087  1.0000
  C   C142      1.0  0.70748  0.29365  0.44544  1.0000
  C   C143      1.0  0.70748  0.29365  0.55456  1.0000
  C   C144      1.0  0.72426  0.27692  0.60912  1.0000
  O   O59       1.0  0.75614  0.24514  0.60367  1.0000
  O   O60       1.0  0.75614  0.24514  0.39633  1.0000
  O   O61       1.0  0.72426  0.27692  0.29266  1.0000
  O   O62       1.0  0.69238  0.30871  0.39633  1.0000
  O   O63       1.0  0.69238  0.30871  0.60367  1.0000
  O   O64       1.0  0.72426  0.27692  0.70733  1.0000
  Cu  Cu1       1.0  0.25028  0.25176  0.25010  1.0000
  Cu  Cu2       1.0  0.75028  0.25176  0.25010  1.0000
  Cu  Cu3       1.0  0.75027  0.75176  0.25000  1.0000
  Cu  Cu4       1.0  0.25027  0.75176  0.25000  1.0000
  Cu  Cu5       1.0  0.25027  0.75176  0.75010  1.0000
  Cu  Cu6       1.0  0.25028  0.25176  0.75010  1.0000
  Cu  Cu7       1.0  0.75028  0.25176  0.75010  1.0000
  Cu  Cu8       1.0  0.75027  0.75176  0.75010  1.0000
  Zn  Zn1       1.0  0.17316  0.17535  0.00010  1.0000
  Zn  Zn2       1.0  0.82743  0.17538  0.00010  1.0000
  Zn  Zn3       1.0  0.82743  0.82813  0.00010  1.0000
  Zn  Zn4       1.0  0.17306  0.82809  0.00010  1.0000
  Zn  Zn5       1.0  0.67311  0.67539  0.50000  1.0000
  Zn  Zn6       1.0  0.32748  0.67542  0.50000  1.0000
  Zn  Zn7       1.0  0.32740  0.32817  0.50000  1.0000
  Zn  Zn8       1.0  0.67312  0.32815  0.50000  1.0000
