data_image0
_chemical_formula_structural       C7NCNCNC3NCNC11NCNC7NHO2H2O2H2O2H2O2HNiC7NCNCNC3NCNC11NCNC7NHO2H2O2H2O2H2O2HNiC6O6C6O6C6O6C6O6C6O6C6O6C6O6C6O6Cu8Zn8
_chemical_formula_sum              "C112 N16 H16 O64 Ni2 Cu8 Zn8"
_cell_length_a       42.9225
_cell_length_b       42.9221
_cell_length_c       12.8298
_cell_angle_alpha    90
_cell_angle_beta     90
_cell_angle_gamma    89.9999

_space_group_name_H-M_alt    "P 1"
_space_group_IT_number       1

loop_
  _space_group_symop_operation_xyz
  'x, y, z'

loop_
  _atom_site_type_symbol
  _atom_site_label
  _atom_site_symmetry_multiplicity
  _atom_site_fract_x
  _atom_site_fract_y
  _atom_site_fract_z
  _atom_site_occupancy
  C   C1        1.0  0.87959  0.93102  0.00107  1.0000
  C   C2        1.0  0.87045  0.89612  0.00010  1.0000
  C   C3        1.0  0.89608  0.87049  0.00010  1.0000
  C   C4        1.0  0.93098  0.87962  0.00010  1.0000
  C   C5        1.0  0.93890  0.91441  0.00010  1.0000
  C   C6        1.0  0.91438  0.93892  0.00010  1.0000
  C   C7        1.0  0.93072  0.97058  0.00108  1.0000
  N   N1        1.0  0.96616  0.96618  0.00010  1.0000
  C   C8        1.0  0.97056  0.93074  0.00010  1.0000
  N   N2        1.0  0.00010  0.91331  0.99990  1.0000
  C   C9        1.0  0.02968  0.93074  0.99990  1.0000
  N   N3        1.0  0.03407  0.96618  0.00010  1.0000
  C   C10       1.0  0.06951  0.97058  0.00010  1.0000
  C   C11       1.0  0.08585  0.93893  0.00010  1.0000
  C   C12       1.0  0.06134  0.91440  0.99990  1.0000
  N   N4        1.0  0.03407  0.03409  0.00010  1.0000
  C   C13       1.0  0.06952  0.02969  0.00010  1.0000
  N   N5        1.0  0.08695  0.00010  0.00010  1.0000
  C   C14       1.0  0.08585  0.06135  0.00010  1.0000
  C   C15       1.0  0.06133  0.08587  0.00010  1.0000
  C   C16       1.0  0.02968  0.06953  0.00010  1.0000
  C   C17       1.0  0.06928  0.87962  0.99990  1.0000
  C   C18       1.0  0.10417  0.87050  0.99990  1.0000
  C   C19       1.0  0.12979  0.89614  0.99990  1.0000
  C   C20       1.0  0.12065  0.93103  0.00010  1.0000
  C   C21       1.0  0.06925  0.12066  0.99990  1.0000
  C   C22       1.0  0.10413  0.12979  0.00010  1.0000
  C   C23       1.0  0.12977  0.10416  0.00010  1.0000
  C   C24       1.0  0.12064  0.06927  0.00010  1.0000
  N   N6        1.0  0.96617  0.03409  0.00010  1.0000
  C   C25       1.0  0.97057  0.06953  0.99990  1.0000
  N   N7        1.0  0.00010  0.08696  0.99990  1.0000
  C   C26       1.0  0.93892  0.08587  0.99990  1.0000
  C   C27       1.0  0.91440  0.06136  0.00010  1.0000
  C   C28       1.0  0.93073  0.02969  0.00010  1.0000
  C   C29       1.0  0.87961  0.06928  0.00010  1.0000
  C   C30       1.0  0.87049  0.10418  0.99990  1.0000
  C   C31       1.0  0.89613  0.12981  0.99990  1.0000
  C   C32       1.0  0.93102  0.12066  0.99990  1.0000
  N   N8        1.0  0.91330  0.00010  0.00134  1.0000
  H   H1        1.0  0.86258  0.94860  0.00132  1.0000
  O   O1        1.0  0.84122  0.88821  0.00010  1.0000
  O   O2        1.0  0.88815  0.84126  0.00010  1.0000
  H   H2        1.0  0.94856  0.86260  0.99990  1.0000
  H   H3        1.0  0.05171  0.86259  0.99990  1.0000
  O   O3        1.0  0.11211  0.84127  0.99990  1.0000
  O   O4        1.0  0.15903  0.88824  0.99990  1.0000
  H   H4        1.0  0.13765  0.94862  0.00010  1.0000
  H   H5        1.0  0.05167  0.13767  0.99990  1.0000
  O   O5        1.0  0.11205  0.15903  0.00010  1.0000
  O   O6        1.0  0.15900  0.11209  0.00010  1.0000
  H   H6        1.0  0.13766  0.05170  0.00102  1.0000
  H   H7        1.0  0.86259  0.05171  0.00010  1.0000
  O   O7        1.0  0.84126  0.11211  0.99990  1.0000
  O   O8        1.0  0.88822  0.15904  0.99990  1.0000
  H   H8        1.0  0.94860  0.13766  0.99990  1.0000
  Ni  Ni1       1.0  0.00010  0.00010  0.00010  1.0000
  C   C33       1.0  0.62065  0.43101  0.49903  1.0000
  C   C34       1.0  0.62979  0.39612  0.49928  1.0000
  C   C35       1.0  0.60416  0.37049  0.49965  1.0000
  C   C36       1.0  0.56926  0.37962  0.49984  1.0000
  C   C37       1.0  0.56134  0.41441  0.49961  1.0000
  C   C38       1.0  0.58586  0.43892  0.49915  1.0000
  C   C39       1.0  0.56952  0.47058  0.49902  1.0000
  N   N9        1.0  0.53408  0.46618  0.49938  1.0000
  C   C40       1.0  0.52968  0.43074  0.49975  1.0000
  N   N10       1.0  0.50012  0.41330  0.50024  1.0000
  C   C41       1.0  0.47056  0.43073  0.50017  1.0000
  N   N11       1.0  0.46617  0.46618  0.49982  1.0000
  C   C42       1.0  0.43073  0.47058  0.49965  1.0000
  C   C43       1.0  0.41439  0.43893  0.50000  1.0000
  C   C44       1.0  0.43890  0.41440  0.50028  1.0000
  N   N12       1.0  0.46617  0.53409  0.49959  1.0000
  C   C45       1.0  0.43072  0.52969  0.49928  1.0000
  N   N13       1.0  0.41329  0.50014  0.49913  1.0000
  C   C46       1.0  0.41439  0.56135  0.49949  1.0000
  C   C47       1.0  0.43891  0.58587  0.49994  1.0000
  C   C48       1.0  0.47056  0.56953  0.50006  1.0000
  C   C49       1.0  0.43096  0.37962  0.50045  1.0000
  C   C50       1.0  0.39607  0.37050  0.50044  1.0000
  C   C51       1.0  0.37045  0.39614  0.50035  1.0000
  C   C52       1.0  0.37959  0.43103  0.50005  1.0000
  C   C53       1.0  0.43100  0.62066  0.50012  1.0000
  C   C54       1.0  0.39611  0.62979  0.49980  1.0000
  C   C55       1.0  0.37048  0.60416  0.49944  1.0000
  C   C56       1.0  0.37960  0.56927  0.49930  1.0000
  N   N14       1.0  0.53407  0.53409  0.49970  1.0000
  C   C57       1.0  0.52967  0.56953  0.50019  1.0000
  N   N15       1.0  0.50012  0.58696  0.50056  1.0000
  C   C58       1.0  0.56132  0.58587  0.50016  1.0000
  C   C59       1.0  0.58585  0.56136  0.49964  1.0000
  C   C60       1.0  0.56951  0.52969  0.49931  1.0000
  C   C61       1.0  0.62063  0.56928  0.49965  1.0000
  C   C62       1.0  0.62975  0.60418  0.50013  1.0000
  C   C63       1.0  0.60411  0.62980  0.50046  1.0000
  C   C64       1.0  0.56922  0.62066  0.50049  1.0000
  N   N16       1.0  0.58694  0.50014  0.49876  1.0000
  H   H9        1.0  0.63766  0.44860  0.49878  1.0000
  O   O9        1.0  0.65902  0.38820  0.49920  1.0000
  O   O10       1.0  0.61209  0.34126  0.49980  1.0000
  H   H10       1.0  0.55168  0.36260  0.50011  1.0000
  H   H11       1.0  0.44853  0.36259  0.50055  1.0000
  O   O11       1.0  0.38813  0.34127  0.50047  1.0000
  O   O12       1.0  0.34121  0.38824  0.50053  1.0000
  H   H12       1.0  0.36259  0.44862  0.49994  1.0000
  H   H13       1.0  0.44857  0.63767  0.50040  1.0000
  O   O13       1.0  0.38819  0.65903  0.49977  1.0000
  O   O14       1.0  0.34124  0.61209  0.49922  1.0000
  H   H14       1.0  0.36258  0.55170  0.49908  1.0000
  H   H15       1.0  0.63765  0.55171  0.49938  1.0000
  O   O15       1.0  0.65898  0.61211  0.50030  1.0000
  O   O16       1.0  0.61203  0.65904  0.50070  1.0000
  H   H16       1.0  0.55164  0.63766  0.50076  1.0000
  Ni  Ni2       1.0  0.50012  0.50013  0.49944  1.0000
  C   C65       1.0  0.23957  0.23961  0.94554  1.0000
  C   C66       1.0  0.23957  0.23961  0.05466  1.0000
  C   C67       1.0  0.21960  0.21964  0.10922  1.0000
  C   C68       1.0  0.19963  0.19966  0.05466  1.0000
  C   C69       1.0  0.19963  0.19966  0.94554  1.0000
  C   C70       1.0  0.21960  0.21964  0.89098  1.0000
  O   O17       1.0  0.25755  0.25759  0.89644  1.0000
  O   O18       1.0  0.25755  0.25759  0.10377  1.0000
  O   O19       1.0  0.21960  0.21964  0.20743  1.0000
  O   O20       1.0  0.18166  0.18168  0.10377  1.0000
  O   O21       1.0  0.18166  0.18168  0.89644  1.0000
  O   O22       1.0  0.21960  0.21964  0.79277  1.0000
  C   C71       1.0  0.76070  0.23964  0.94554  1.0000
  C   C72       1.0  0.76070  0.23964  0.05466  1.0000
  C   C73       1.0  0.78067  0.21966  0.10922  1.0000
  C   C74       1.0  0.80064  0.19969  0.05466  1.0000
  C   C75       1.0  0.80064  0.19969  0.94554  1.0000
  C   C76       1.0  0.78067  0.21966  0.89098  1.0000
  O   O23       1.0  0.74272  0.25761  0.89644  1.0000
  O   O24       1.0  0.74272  0.25761  0.10377  1.0000
  O   O25       1.0  0.78067  0.21966  0.20743  1.0000
  O   O26       1.0  0.81862  0.18171  0.10377  1.0000
  O   O27       1.0  0.81862  0.18171  0.89644  1.0000
  O   O28       1.0  0.78067  0.21966  0.79277  1.0000
  C   C77       1.0  0.76063  0.76068  0.94554  1.0000
  C   C78       1.0  0.76063  0.76068  0.05466  1.0000
  C   C79       1.0  0.78060  0.78066  0.10922  1.0000
  C   C80       1.0  0.80058  0.80063  0.05466  1.0000
  C   C81       1.0  0.80058  0.80063  0.94554  1.0000
  C   C82       1.0  0.78060  0.78066  0.89098  1.0000
  O   O29       1.0  0.74265  0.74271  0.89644  1.0000
  O   O30       1.0  0.74265  0.74271  0.10377  1.0000
  O   O31       1.0  0.78060  0.78066  0.20743  1.0000
  O   O32       1.0  0.81856  0.81860  0.10377  1.0000
  O   O33       1.0  0.81856  0.81860  0.89644  1.0000
  O   O34       1.0  0.78060  0.78066  0.79277  1.0000
  C   C83       1.0  0.23964  0.76071  0.05466  1.0000
  C   C84       1.0  0.23964  0.76071  0.94554  1.0000
  C   C85       1.0  0.21966  0.78069  0.89098  1.0000
  C   C86       1.0  0.19969  0.80066  0.94554  1.0000
  C   C87       1.0  0.19969  0.80066  0.05466  1.0000
  C   C88       1.0  0.21966  0.78069  0.10922  1.0000
  O   O35       1.0  0.25761  0.74274  0.10376  1.0000
  O   O36       1.0  0.25761  0.74274  0.89643  1.0000
  O   O37       1.0  0.21966  0.78069  0.79277  1.0000
  O   O38       1.0  0.18171  0.81864  0.89643  1.0000
  O   O39       1.0  0.18171  0.81864  0.10376  1.0000
  O   O40       1.0  0.21966  0.78069  0.20743  1.0000
  C   C89       1.0  0.73954  0.73964  0.44544  1.0000
  C   C90       1.0  0.73954  0.73964  0.55456  1.0000
  C   C91       1.0  0.71957  0.71966  0.60912  1.0000
  C   C92       1.0  0.69960  0.69969  0.55456  1.0000
  C   C93       1.0  0.69960  0.69969  0.44544  1.0000
  C   C94       1.0  0.71957  0.71966  0.39088  1.0000
  O   O41       1.0  0.75752  0.75761  0.39634  1.0000
  O   O42       1.0  0.75752  0.75761  0.60367  1.0000
  O   O43       1.0  0.71957  0.71966  0.70733  1.0000
  O   O44       1.0  0.68162  0.68171  0.60367  1.0000
  O   O45       1.0  0.68162  0.68171  0.39634  1.0000
  O   O46       1.0  0.71957  0.71966  0.29267  1.0000
  C   C95       1.0  0.26067  0.73962  0.55456  1.0000
  C   C96       1.0  0.26067  0.73962  0.44544  1.0000
  C   C97       1.0  0.28064  0.71964  0.39088  1.0000
  C   C98       1.0  0.30061  0.69967  0.44544  1.0000
  C   C99       1.0  0.30061  0.69967  0.55456  1.0000
  C   C100      1.0  0.28064  0.71964  0.60912  1.0000
  O   O47       1.0  0.24270  0.75760  0.60366  1.0000
  O   O48       1.0  0.24270  0.75760  0.39633  1.0000
  O   O49       1.0  0.28064  0.71964  0.29267  1.0000
  O   O50       1.0  0.31859  0.68169  0.39633  1.0000
  O   O51       1.0  0.31859  0.68169  0.60366  1.0000
  O   O52       1.0  0.28064  0.71964  0.70733  1.0000
  C   C101      1.0  0.26060  0.26072  0.44544  1.0000
  C   C102      1.0  0.26060  0.26072  0.55456  1.0000
  C   C103      1.0  0.28058  0.28069  0.60912  1.0000
  C   C104      1.0  0.30055  0.30066  0.55456  1.0000
  C   C105      1.0  0.30055  0.30066  0.44544  1.0000
  C   C106      1.0  0.28058  0.28069  0.39088  1.0000
  O   O53       1.0  0.24263  0.24274  0.39634  1.0000
  O   O54       1.0  0.24263  0.24274  0.60367  1.0000
  O   O55       1.0  0.28058  0.28069  0.70733  1.0000
  O   O56       1.0  0.31853  0.31864  0.60367  1.0000
  O   O57       1.0  0.31853  0.31864  0.39634  1.0000
  O   O58       1.0  0.28058  0.28069  0.29267  1.0000
  C   C107      1.0  0.73961  0.26069  0.55456  1.0000
  C   C108      1.0  0.73961  0.26069  0.44544  1.0000
  C   C109      1.0  0.71964  0.28066  0.39088  1.0000
  C   C110      1.0  0.69966  0.30063  0.44544  1.0000
  C   C111      1.0  0.69966  0.30063  0.55456  1.0000
  C   C112      1.0  0.71964  0.28066  0.60912  1.0000
  O   O59       1.0  0.75759  0.24272  0.60366  1.0000
  O   O60       1.0  0.75759  0.24272  0.39633  1.0000
  O   O61       1.0  0.71964  0.28066  0.29267  1.0000
  O   O62       1.0  0.68168  0.31861  0.39633  1.0000
  O   O63       1.0  0.68168  0.31861  0.60366  1.0000
  O   O64       1.0  0.71964  0.28066  0.70733  1.0000
  Cu  Cu1       1.0  0.25009  0.25016  0.25010  1.0000
  Cu  Cu2       1.0  0.75016  0.25016  0.25010  1.0000
  Cu  Cu3       1.0  0.75009  0.75016  0.25000  1.0000
  Cu  Cu4       1.0  0.25015  0.75016  0.25000  1.0000
  Cu  Cu5       1.0  0.25015  0.75016  0.75010  1.0000
  Cu  Cu6       1.0  0.25009  0.25016  0.75010  1.0000
  Cu  Cu7       1.0  0.75016  0.25016  0.75010  1.0000
  Cu  Cu8       1.0  0.75009  0.75016  0.75010  1.0000
  Zn  Zn1       1.0  0.15859  0.15862  0.00010  1.0000
  Zn  Zn2       1.0  0.84168  0.15864  0.99990  1.0000
  Zn  Zn3       1.0  0.84162  0.84167  0.00010  1.0000
  Zn  Zn4       1.0  0.15864  0.84169  0.99990  1.0000
  Zn  Zn5       1.0  0.65856  0.65864  0.50025  1.0000
  Zn  Zn6       1.0  0.34165  0.65862  0.49975  1.0000
  Zn  Zn7       1.0  0.34160  0.34170  0.50025  1.0000
  Zn  Zn8       1.0  0.65862  0.34167  0.49975  1.0000
