data_image0
_chemical_formula_structural       C7NCNCNC3NCNC11NCNC7NH8C16HO2H2O2H2O2H2O2HNiC7NCNCNC3NCNC11NCNC7NH8C16HO2H2O2H2O2H2O2HNiC26H7O2H2O2HC4HO2HC26H7O2H2O2HC4HO2HC26H7O2H2O2HC4HO2HC26H7O2H2O2HC4HO2HC26H7O2H2O2HC4HO2HC26H7O2H2O2HC4HO2HC26H7O2H2O2HC4HO2HC26H7O2H2O2HC4HO2HCu8Zn8
_chemical_formula_sum              "C336 N16 H128 O64 Ni2 Cu8 Zn8"
_cell_length_a       75.3289
_cell_length_b       75.0691
_cell_length_c       32.449
_cell_angle_alpha    90
_cell_angle_beta     90
_cell_angle_gamma    90.0003

_space_group_name_H-M_alt    "P 1"
_space_group_IT_number       1

loop_
  _space_group_symop_operation_xyz
  'x, y, z'

loop_
  _atom_site_type_symbol
  _atom_site_label
  _atom_site_symmetry_multiplicity
  _atom_site_fract_x
  _atom_site_fract_y
  _atom_site_fract_z
  _atom_site_occupancy
  C   C1        1.0  0.06948  0.04127  0.00010  1.0000
  C   C2        1.0  0.07462  0.06124  0.00010  1.0000
  C   C3        1.0  0.06007  0.07585  0.00010  1.0000
  C   C4        1.0  0.04026  0.07063  0.00010  1.0000
  C   C5        1.0  0.03572  0.05075  0.00010  1.0000
  C   C6        1.0  0.04975  0.03666  0.00010  1.0000
  C   C7        1.0  0.04051  0.01848  0.00010  1.0000
  N   N1        1.0  0.02048  0.02131  0.00010  1.0000
  C   C8        1.0  0.01765  0.04145  0.00010  1.0000
  N   N2        1.0  0.00010  0.05108  0.00010  1.0000
  C   C9        1.0  0.98254  0.04145  0.00010  1.0000
  N   N3        1.0  0.97972  0.02131  0.00010  1.0000
  C   C10       1.0  0.95972  0.01847  0.00010  1.0000
  C   C11       1.0  0.95049  0.03665  0.00010  1.0000
  C   C12       1.0  0.96447  0.05076  0.00010  1.0000
  N   N4        1.0  0.97971  0.98039  0.00010  1.0000
  C   C13       1.0  0.95973  0.98323  0.00010  1.0000
  N   N5        1.0  0.95016  0.00010  0.00010  1.0000
  C   C14       1.0  0.95049  0.96504  0.00010  1.0000
  C   C15       1.0  0.96449  0.95095  0.00010  1.0000
  C   C16       1.0  0.98254  0.96026  0.00010  1.0000
  C   C17       1.0  0.95992  0.07063  0.00010  1.0000
  C   C18       1.0  0.94015  0.07585  0.00010  1.0000
  C   C19       1.0  0.92564  0.06124  0.00010  1.0000
  C   C20       1.0  0.93078  0.04127  0.00010  1.0000
  C   C21       1.0  0.95994  0.93107  0.00010  1.0000
  C   C22       1.0  0.94015  0.92584  0.00010  1.0000
  C   C23       1.0  0.92564  0.94046  0.00010  1.0000
  C   C24       1.0  0.93079  0.96042  0.00010  1.0000
  N   N6        1.0  0.02049  0.98039  0.00010  1.0000
  C   C25       1.0  0.01766  0.96027  0.00010  1.0000
  N   N7        1.0  0.00010  0.95064  0.00010  1.0000
  C   C26       1.0  0.03573  0.95095  0.00010  1.0000
  C   C27       1.0  0.04974  0.96505  0.00010  1.0000
  C   C28       1.0  0.04051  0.98323  0.00010  1.0000
  C   C29       1.0  0.06946  0.96043  0.00010  1.0000
  C   C30       1.0  0.07461  0.94046  0.00010  1.0000
  C   C31       1.0  0.06007  0.92585  0.00010  1.0000
  C   C32       1.0  0.04027  0.93108  0.00010  1.0000
  N   N8        1.0  0.05009  0.00010  0.00010  1.0000
  H   H1        1.0  0.07997  0.03042  0.00010  1.0000
  H   H2        1.0  0.02945  0.08119  0.00010  1.0000
  H   H3        1.0  0.97071  0.08119  0.00010  1.0000
  H   H4        1.0  0.92029  0.03041  0.00010  1.0000
  H   H5        1.0  0.97072  0.92052  0.00010  1.0000
  H   H6        1.0  0.92031  0.97129  0.00010  1.0000
  H   H7        1.0  0.07996  0.97129  0.00010  1.0000
  H   H8        1.0  0.02946  0.92052  0.00010  1.0000
  C   C33       1.0  0.09423  0.93505  0.00010  1.0000
  C   C34       1.0  0.09945  0.91521  0.00010  1.0000
  C   C35       1.0  0.08507  0.90075  0.00010  1.0000
  C   C36       1.0  0.06541  0.90606  0.00010  1.0000
  C   C37       1.0  0.09425  0.06668  0.00010  1.0000
  C   C38       1.0  0.09947  0.08651  0.00010  1.0000
  C   C39       1.0  0.08510  0.10096  0.00010  1.0000
  C   C40       1.0  0.06542  0.09565  0.00010  1.0000
  C   C41       1.0  0.93481  0.09565  0.00010  1.0000
  C   C42       1.0  0.91515  0.10095  0.00010  1.0000
  C   C43       1.0  0.90080  0.08648  0.00010  1.0000
  C   C44       1.0  0.90603  0.06665  0.00010  1.0000
  C   C45       1.0  0.93481  0.90604  0.00010  1.0000
  C   C46       1.0  0.91518  0.90073  0.00010  1.0000
  C   C47       1.0  0.90083  0.91518  0.00010  1.0000
  C   C48       1.0  0.90605  0.93502  0.00010  1.0000
  H   H9        1.0  0.10490  0.94573  0.00010  1.0000
  O   O1        1.0  0.11858  0.90997  0.00010  1.0000
  O   O2        1.0  0.09023  0.88145  0.00010  1.0000
  H   H10       1.0  0.05479  0.89531  0.00010  1.0000
  H   H11       1.0  0.10492  0.05600  0.00010  1.0000
  O   O3        1.0  0.11861  0.09176  0.00010  1.0000
  O   O4        1.0  0.09024  0.12027  0.00010  1.0000
  H   H12       1.0  0.05481  0.10639  0.00010  1.0000
  H   H13       1.0  0.94540  0.10640  0.00010  1.0000
  O   O5        1.0  0.90998  0.12025  0.00010  1.0000
  O   O6        1.0  0.88170  0.09172  0.00010  1.0000
  H   H14       1.0  0.89538  0.05597  0.00010  1.0000
  H   H15       1.0  0.94540  0.89531  0.00010  1.0000
  O   O7        1.0  0.91001  0.88144  0.00010  1.0000
  O   O8        1.0  0.88172  0.90994  0.00010  1.0000
  H   H16       1.0  0.89539  0.94569  0.00010  1.0000
  Ni  Ni1       1.0  0.00010  0.00010  0.00010  1.0000
  C   C49       1.0  0.43079  0.46044  0.50000  1.0000
  C   C50       1.0  0.42564  0.44048  0.50000  1.0000
  C   C51       1.0  0.44019  0.42586  0.50000  1.0000
  C   C52       1.0  0.46000  0.43108  0.50000  1.0000
  C   C53       1.0  0.46454  0.45096  0.50000  1.0000
  C   C54       1.0  0.45051  0.46506  0.50000  1.0000
  C   C55       1.0  0.45975  0.48323  0.50000  1.0000
  N   N9        1.0  0.47978  0.48040  0.50000  1.0000
  C   C56       1.0  0.48261  0.46027  0.50000  1.0000
  N   N10       1.0  0.50018  0.45064  0.50000  1.0000
  C   C57       1.0  0.51772  0.46026  0.50000  1.0000
  N   N11       1.0  0.52055  0.48040  0.50000  1.0000
  C   C58       1.0  0.54055  0.48325  0.50000  1.0000
  C   C59       1.0  0.54978  0.46506  0.50000  1.0000
  C   C60       1.0  0.53579  0.45096  0.50000  1.0000
  N   N12       1.0  0.52055  0.52132  0.50000  1.0000
  C   C61       1.0  0.54054  0.51848  0.50000  1.0000
  N   N13       1.0  0.55011  0.50087  0.50000  1.0000
  C   C62       1.0  0.54978  0.53667  0.50000  1.0000
  C   C63       1.0  0.53578  0.55077  0.50000  1.0000
  C   C64       1.0  0.51772  0.54146  0.50000  1.0000
  C   C65       1.0  0.54034  0.43109  0.50000  1.0000
  C   C66       1.0  0.56011  0.42586  0.50000  1.0000
  C   C67       1.0  0.57463  0.44048  0.50000  1.0000
  C   C68       1.0  0.56949  0.46044  0.50000  1.0000
  C   C69       1.0  0.54033  0.57064  0.50000  1.0000
  C   C70       1.0  0.56011  0.57588  0.50000  1.0000
  C   C71       1.0  0.57462  0.56125  0.50000  1.0000
  C   C72       1.0  0.56948  0.54129  0.50000  1.0000
  N   N14       1.0  0.47977  0.52133  0.50000  1.0000
  C   C73       1.0  0.48261  0.54145  0.50000  1.0000
  N   N15       1.0  0.50017  0.55107  0.50000  1.0000
  C   C74       1.0  0.46454  0.55077  0.50000  1.0000
  C   C75       1.0  0.45053  0.53667  0.50000  1.0000
  C   C76       1.0  0.45976  0.51848  0.50000  1.0000
  C   C77       1.0  0.43081  0.54129  0.50000  1.0000
  C   C78       1.0  0.42565  0.56126  0.50000  1.0000
  C   C79       1.0  0.44019  0.57587  0.50000  1.0000
  C   C80       1.0  0.46000  0.57064  0.50000  1.0000
  N   N16       1.0  0.45017  0.50085  0.50000  1.0000
  H   H17       1.0  0.42029  0.47129  0.50000  1.0000
  H   H18       1.0  0.47081  0.42053  0.50000  1.0000
  H   H19       1.0  0.52955  0.42053  0.50000  1.0000
  H   H20       1.0  0.57997  0.47130  0.50000  1.0000
  H   H21       1.0  0.52955  0.58120  0.50000  1.0000
  H   H22       1.0  0.57996  0.53043  0.50000  1.0000
  H   H23       1.0  0.42031  0.53043  0.50000  1.0000
  H   H24       1.0  0.47080  0.58120  0.50000  1.0000
  C   C81       1.0  0.40603  0.56667  0.50000  1.0000
  C   C82       1.0  0.40082  0.58651  0.50000  1.0000
  C   C83       1.0  0.41519  0.60097  0.50000  1.0000
  C   C84       1.0  0.43486  0.59566  0.50000  1.0000
  C   C85       1.0  0.40601  0.43504  0.50000  1.0000
  C   C86       1.0  0.40079  0.41520  0.50000  1.0000
  C   C87       1.0  0.41516  0.40075  0.50000  1.0000
  C   C88       1.0  0.43484  0.40607  0.50000  1.0000
  C   C89       1.0  0.56546  0.40606  0.50000  1.0000
  C   C90       1.0  0.58511  0.40076  0.50000  1.0000
  C   C91       1.0  0.59946  0.41523  0.50000  1.0000
  C   C92       1.0  0.59423  0.43506  0.50000  1.0000
  C   C93       1.0  0.56545  0.59568  0.50000  1.0000
  C   C94       1.0  0.58509  0.60098  0.50000  1.0000
  C   C95       1.0  0.59944  0.58653  0.50000  1.0000
  C   C96       1.0  0.59422  0.56670  0.50000  1.0000
  H   H25       1.0  0.39537  0.55599  0.50000  1.0000
  O   O9        1.0  0.38169  0.59175  0.50000  1.0000
  O   O10       1.0  0.41004  0.62027  0.50000  1.0000
  H   H26       1.0  0.44548  0.60641  0.50000  1.0000
  H   H27       1.0  0.39534  0.44572  0.50000  1.0000
  O   O11       1.0  0.38165  0.40996  0.50000  1.0000
  O   O12       1.0  0.41002  0.38144  0.50000  1.0000
  H   H28       1.0  0.44545  0.39533  0.50000  1.0000
  H   H29       1.0  0.55486  0.39532  0.50000  1.0000
  O   O13       1.0  0.59028  0.38146  0.50000  1.0000
  O   O14       1.0  0.61857  0.40999  0.50000  1.0000
  H   H30       1.0  0.60488  0.44574  0.50000  1.0000
  H   H31       1.0  0.55487  0.60640  0.50000  1.0000
  O   O15       1.0  0.59026  0.62027  0.50000  1.0000
  O   O16       1.0  0.61855  0.59177  0.50000  1.0000
  H   H32       1.0  0.60487  0.55602  0.50000  1.0000
  Ni  Ni2       1.0  0.50016  0.50086  0.50000  1.0000
  C   C97       1.0  0.19266  0.19517  0.02382  1.0000
  C   C98       1.0  0.19267  0.19517  0.97638  1.0000
  C   C99       1.0  0.20524  0.20768  0.95265  1.0000
  C   C100      1.0  0.21782  0.22018  0.97636  1.0000
  C   C101      1.0  0.21782  0.22018  0.02383  1.0000
  C   C102      1.0  0.20524  0.20768  0.04756  1.0000
  C   C103      1.0  0.23039  0.23268  0.95263  1.0000
  C   C104      1.0  0.23040  0.23269  0.90519  1.0000
  C   C105      1.0  0.21782  0.22018  0.88145  1.0000
  C   C106      1.0  0.20524  0.20768  0.90518  1.0000
  C   C107      1.0  0.18009  0.18267  0.04755  1.0000
  C   C108      1.0  0.16751  0.17016  0.02384  1.0000
  C   C109      1.0  0.16751  0.17016  0.97637  1.0000
  C   C110      1.0  0.18009  0.18267  0.95264  1.0000
  C   C111      1.0  0.20524  0.20768  0.09503  1.0000
  C   C112      1.0  0.21782  0.22018  0.11874  1.0000
  C   C113      1.0  0.23039  0.23268  0.09501  1.0000
  C   C114      1.0  0.23040  0.23269  0.04757  1.0000
  C   C115      1.0  0.24297  0.24519  0.11875  1.0000
  C   C116      1.0  0.24297  0.24519  0.16621  1.0000
  C   C117      1.0  0.23040  0.23269  0.18994  1.0000
  C   C118      1.0  0.21782  0.22018  0.16621  1.0000
  C   C119      1.0  0.21782  0.22018  0.83399  1.0000
  C   C120      1.0  0.23039  0.23268  0.81026  1.0000
  C   C121      1.0  0.24297  0.24519  0.83399  1.0000
  C   C122      1.0  0.24297  0.24519  0.88146  1.0000
  H   H33       1.0  0.23971  0.24194  0.97022  1.0000
  H   H34       1.0  0.19593  0.19842  0.88762  1.0000
  H   H35       1.0  0.18009  0.18267  0.08270  1.0000
  H   H36       1.0  0.18009  0.18267  0.91752  1.0000
  H   H37       1.0  0.19593  0.19842  0.11259  1.0000
  H   H38       1.0  0.23971  0.24194  0.03000  1.0000
  H   H39       1.0  0.25228  0.25445  0.10118  1.0000
  O   O17       1.0  0.25522  0.25737  0.18933  1.0000
  O   O18       1.0  0.23040  0.23269  0.23617  1.0000
  H   H40       1.0  0.20851  0.21092  0.18377  1.0000
  H   H41       1.0  0.20851  0.21092  0.81643  1.0000
  O   O19       1.0  0.23039  0.23268  0.76403  1.0000
  O   O20       1.0  0.25522  0.25737  0.81088  1.0000
  H   H42       1.0  0.25228  0.25445  0.89902  1.0000
  C   C123      1.0  0.15493  0.15766  0.95263  1.0000
  C   C124      1.0  0.14236  0.14515  0.97636  1.0000
  C   C125      1.0  0.14236  0.14515  0.02383  1.0000
  C   C126      1.0  0.15494  0.15766  0.04757  1.0000
  H   H43       1.0  0.15493  0.15766  0.91751  1.0000
  O   O21       1.0  0.13011  0.13297  0.95325  1.0000
  O   O22       1.0  0.13011  0.13297  0.04694  1.0000
  H   H44       1.0  0.15494  0.15766  0.08269  1.0000
  C   C127      1.0  0.78242  0.22015  0.02384  1.0000
  C   C128      1.0  0.79500  0.20765  0.04756  1.0000
  C   C129      1.0  0.80757  0.19514  0.02383  1.0000
  C   C130      1.0  0.80758  0.19514  0.97639  1.0000
  C   C131      1.0  0.79500  0.20765  0.95265  1.0000
  C   C132      1.0  0.78242  0.22015  0.97638  1.0000
  C   C133      1.0  0.82015  0.18263  0.95266  1.0000
  C   C134      1.0  0.83273  0.17013  0.97637  1.0000
  C   C135      1.0  0.83273  0.17013  0.02384  1.0000
  C   C136      1.0  0.82015  0.18264  0.04756  1.0000
  C   C137      1.0  0.76985  0.23265  0.04757  1.0000
  C   C138      1.0  0.76984  0.23266  0.09502  1.0000
  C   C139      1.0  0.78242  0.22015  0.11875  1.0000
  C   C140      1.0  0.79500  0.20765  0.09502  1.0000
  C   C141      1.0  0.76984  0.23266  0.95264  1.0000
  C   C142      1.0  0.76985  0.23265  0.90520  1.0000
  C   C143      1.0  0.78242  0.22015  0.88147  1.0000
  C   C144      1.0  0.79500  0.20765  0.90518  1.0000
  C   C145      1.0  0.78242  0.22015  0.83400  1.0000
  C   C146      1.0  0.76984  0.23266  0.81026  1.0000
  C   C147      1.0  0.75727  0.24516  0.83399  1.0000
  C   C148      1.0  0.75727  0.24516  0.88146  1.0000
  C   C149      1.0  0.84530  0.15762  0.04757  1.0000
  C   C150      1.0  0.85788  0.14512  0.02384  1.0000
  C   C151      1.0  0.85788  0.14512  0.97638  1.0000
  C   C152      1.0  0.84530  0.15763  0.95264  1.0000
  H   H45       1.0  0.82015  0.18264  0.91750  1.0000
  H   H46       1.0  0.82015  0.18264  0.08269  1.0000
  H   H47       1.0  0.76053  0.24191  0.02999  1.0000
  H   H48       1.0  0.80431  0.19839  0.11258  1.0000
  H   H49       1.0  0.76054  0.24191  0.97021  1.0000
  H   H50       1.0  0.80431  0.19839  0.88761  1.0000
  H   H51       1.0  0.79173  0.21089  0.81643  1.0000
  O   O23       1.0  0.76985  0.23266  0.76404  1.0000
  O   O24       1.0  0.74502  0.25734  0.81088  1.0000
  H   H52       1.0  0.74796  0.25442  0.89903  1.0000
  H   H53       1.0  0.84530  0.15763  0.08270  1.0000
  O   O25       1.0  0.87013  0.13294  0.04696  1.0000
  O   O26       1.0  0.87013  0.13294  0.95326  1.0000
  H   H54       1.0  0.84530  0.15763  0.91751  1.0000
  C   C153      1.0  0.78242  0.22015  0.16622  1.0000
  C   C154      1.0  0.76985  0.23265  0.18995  1.0000
  C   C155      1.0  0.75727  0.24516  0.16621  1.0000
  C   C156      1.0  0.75727  0.24516  0.11874  1.0000
  H   H55       1.0  0.79173  0.21089  0.18378  1.0000
  O   O27       1.0  0.76985  0.23265  0.23618  1.0000
  O   O28       1.0  0.74502  0.25734  0.18933  1.0000
  H   H56       1.0  0.74796  0.25442  0.10119  1.0000
  C   C157      1.0  0.78248  0.78151  0.02384  1.0000
  C   C158      1.0  0.79505  0.79401  0.04756  1.0000
  C   C159      1.0  0.80763  0.80651  0.02383  1.0000
  C   C160      1.0  0.80763  0.80651  0.97639  1.0000
  C   C161      1.0  0.79505  0.79401  0.95265  1.0000
  C   C162      1.0  0.78247  0.78151  0.97638  1.0000
  C   C163      1.0  0.82021  0.81902  0.95266  1.0000
  C   C164      1.0  0.83278  0.83152  0.97637  1.0000
  C   C165      1.0  0.83279  0.83152  0.02384  1.0000
  C   C166      1.0  0.82021  0.81901  0.04756  1.0000
  C   C167      1.0  0.76990  0.76900  0.04757  1.0000
  C   C168      1.0  0.76989  0.76900  0.09502  1.0000
  C   C169      1.0  0.78247  0.78151  0.11875  1.0000
  C   C170      1.0  0.79505  0.79401  0.09502  1.0000
  C   C171      1.0  0.76989  0.76900  0.95264  1.0000
  C   C172      1.0  0.76990  0.76900  0.90520  1.0000
  C   C173      1.0  0.78248  0.78151  0.88147  1.0000
  C   C174      1.0  0.79505  0.79401  0.90518  1.0000
  C   C175      1.0  0.78247  0.78151  0.83400  1.0000
  C   C176      1.0  0.76989  0.76900  0.81026  1.0000
  C   C177      1.0  0.75732  0.75650  0.83399  1.0000
  C   C178      1.0  0.75732  0.75650  0.88146  1.0000
  C   C179      1.0  0.84537  0.84402  0.04757  1.0000
  C   C180      1.0  0.85794  0.85653  0.02384  1.0000
  C   C181      1.0  0.85794  0.85652  0.97638  1.0000
  C   C182      1.0  0.84536  0.84402  0.95264  1.0000
  H   H57       1.0  0.82021  0.81901  0.91750  1.0000
  H   H58       1.0  0.82021  0.81901  0.08269  1.0000
  H   H59       1.0  0.76058  0.75975  0.02999  1.0000
  H   H60       1.0  0.80436  0.80326  0.11258  1.0000
  H   H61       1.0  0.76058  0.75975  0.97021  1.0000
  H   H62       1.0  0.80436  0.80326  0.88761  1.0000
  H   H63       1.0  0.79178  0.79076  0.81643  1.0000
  O   O29       1.0  0.76989  0.76900  0.76404  1.0000
  O   O30       1.0  0.74506  0.74432  0.81088  1.0000
  H   H64       1.0  0.74801  0.74724  0.89903  1.0000
  H   H65       1.0  0.84536  0.84402  0.08270  1.0000
  O   O31       1.0  0.87020  0.86870  0.04696  1.0000
  O   O32       1.0  0.87019  0.86870  0.95326  1.0000
  H   H66       1.0  0.84536  0.84402  0.91751  1.0000
  C   C183      1.0  0.78247  0.78151  0.16622  1.0000
  C   C184      1.0  0.76990  0.76900  0.18995  1.0000
  C   C185      1.0  0.75732  0.75650  0.16621  1.0000
  C   C186      1.0  0.75732  0.75650  0.11874  1.0000
  H   H67       1.0  0.79178  0.79076  0.18378  1.0000
  O   O33       1.0  0.76990  0.76900  0.23618  1.0000
  O   O34       1.0  0.74507  0.74432  0.18933  1.0000
  H   H68       1.0  0.74801  0.74724  0.10119  1.0000
  C   C187      1.0  0.19266  0.80655  0.97638  1.0000
  C   C188      1.0  0.19266  0.80655  0.02382  1.0000
  C   C189      1.0  0.20524  0.79404  0.04755  1.0000
  C   C190      1.0  0.21782  0.78154  0.02384  1.0000
  C   C191      1.0  0.21782  0.78154  0.97637  1.0000
  C   C192      1.0  0.20524  0.79405  0.95264  1.0000
  C   C193      1.0  0.23039  0.76904  0.04757  1.0000
  C   C194      1.0  0.23040  0.76904  0.09501  1.0000
  C   C195      1.0  0.21782  0.78154  0.11875  1.0000
  C   C196      1.0  0.20524  0.79405  0.09502  1.0000
  C   C197      1.0  0.18008  0.81906  0.95265  1.0000
  C   C198      1.0  0.16751  0.83156  0.97636  1.0000
  C   C199      1.0  0.16751  0.83156  0.02383  1.0000
  C   C200      1.0  0.18009  0.81905  0.04756  1.0000
  C   C201      1.0  0.20524  0.79404  0.90517  1.0000
  C   C202      1.0  0.21782  0.78154  0.88146  1.0000
  C   C203      1.0  0.23039  0.76904  0.90519  1.0000
  C   C204      1.0  0.23040  0.76904  0.95263  1.0000
  C   C205      1.0  0.24297  0.75653  0.88145  1.0000
  C   C206      1.0  0.24297  0.75653  0.83399  1.0000
  C   C207      1.0  0.23040  0.76904  0.81026  1.0000
  C   C208      1.0  0.21782  0.78154  0.83399  1.0000
  C   C209      1.0  0.21782  0.78154  0.16621  1.0000
  C   C210      1.0  0.23039  0.76904  0.18994  1.0000
  C   C211      1.0  0.24297  0.75653  0.16621  1.0000
  C   C212      1.0  0.24297  0.75653  0.11874  1.0000
  H   H69       1.0  0.23971  0.75978  0.02998  1.0000
  H   H70       1.0  0.19593  0.80330  0.11258  1.0000
  H   H71       1.0  0.18009  0.81905  0.91750  1.0000
  H   H72       1.0  0.18009  0.81905  0.08268  1.0000
  H   H73       1.0  0.19593  0.80330  0.88761  1.0000
  H   H74       1.0  0.23971  0.75978  0.97020  1.0000
  H   H75       1.0  0.25228  0.74728  0.89902  1.0000
  O   O35       1.0  0.25522  0.74435  0.81087  1.0000
  O   O36       1.0  0.23040  0.76904  0.76403  1.0000
  H   H76       1.0  0.20851  0.79080  0.81643  1.0000
  H   H77       1.0  0.20851  0.79080  0.18377  1.0000
  O   O37       1.0  0.23039  0.76904  0.23617  1.0000
  O   O38       1.0  0.25522  0.74435  0.18932  1.0000
  H   H78       1.0  0.25228  0.74728  0.10118  1.0000
  C   C213      1.0  0.15493  0.84406  0.04757  1.0000
  C   C214      1.0  0.14235  0.85657  0.02384  1.0000
  C   C215      1.0  0.14235  0.85657  0.97637  1.0000
  C   C216      1.0  0.15493  0.84406  0.95263  1.0000
  H   H79       1.0  0.15493  0.84406  0.08269  1.0000
  O   O39       1.0  0.13010  0.86875  0.04695  1.0000
  O   O40       1.0  0.13010  0.86874  0.95326  1.0000
  H   H80       1.0  0.15493  0.84406  0.91751  1.0000
  C   C217      1.0  0.69264  0.69519  0.52372  1.0000
  C   C218      1.0  0.69264  0.69520  0.47628  1.0000
  C   C219      1.0  0.70522  0.70770  0.45255  1.0000
  C   C220      1.0  0.71780  0.72020  0.47626  1.0000
  C   C221      1.0  0.71780  0.72020  0.52373  1.0000
  C   C222      1.0  0.70522  0.70770  0.54746  1.0000
  C   C223      1.0  0.73037  0.73270  0.45253  1.0000
  C   C224      1.0  0.73038  0.73270  0.40509  1.0000
  C   C225      1.0  0.71780  0.72020  0.38135  1.0000
  C   C226      1.0  0.70522  0.70770  0.40508  1.0000
  C   C227      1.0  0.68006  0.68269  0.54745  1.0000
  C   C228      1.0  0.66749  0.67019  0.52374  1.0000
  C   C229      1.0  0.66748  0.67019  0.47627  1.0000
  C   C230      1.0  0.68006  0.68269  0.45254  1.0000
  C   C231      1.0  0.70522  0.70770  0.59493  1.0000
  C   C232      1.0  0.71780  0.72020  0.61864  1.0000
  C   C233      1.0  0.73037  0.73270  0.59491  1.0000
  C   C234      1.0  0.73038  0.73270  0.54747  1.0000
  C   C235      1.0  0.74295  0.74520  0.61865  1.0000
  C   C236      1.0  0.74296  0.74521  0.66611  1.0000
  C   C237      1.0  0.73038  0.73270  0.68984  1.0000
  C   C238      1.0  0.71780  0.72020  0.66611  1.0000
  C   C239      1.0  0.71780  0.72020  0.33389  1.0000
  C   C240      1.0  0.73037  0.73270  0.31016  1.0000
  C   C241      1.0  0.74295  0.74520  0.33389  1.0000
  C   C242      1.0  0.74296  0.74521  0.38136  1.0000
  H   H81       1.0  0.73969  0.74196  0.47012  1.0000
  H   H82       1.0  0.69591  0.69844  0.38752  1.0000
  H   H83       1.0  0.68006  0.68269  0.58260  1.0000
  H   H84       1.0  0.68006  0.68269  0.41742  1.0000
  H   H85       1.0  0.69591  0.69844  0.61249  1.0000
  H   H86       1.0  0.73969  0.74196  0.52990  1.0000
  H   H87       1.0  0.75227  0.75446  0.60108  1.0000
  O   O41       1.0  0.75521  0.75738  0.68923  1.0000
  O   O42       1.0  0.73038  0.73270  0.73607  1.0000
  H   H88       1.0  0.70849  0.71094  0.68367  1.0000
  H   H89       1.0  0.70849  0.71094  0.31633  1.0000
  O   O43       1.0  0.73037  0.73270  0.26393  1.0000
  O   O44       1.0  0.75521  0.75738  0.31078  1.0000
  H   H90       1.0  0.75227  0.75446  0.39892  1.0000
  C   C243      1.0  0.65490  0.65768  0.45253  1.0000
  C   C244      1.0  0.64232  0.64518  0.47626  1.0000
  C   C245      1.0  0.64233  0.64518  0.52373  1.0000
  C   C246      1.0  0.65491  0.65769  0.54747  1.0000
  H   H91       1.0  0.65490  0.65769  0.41741  1.0000
  O   O45       1.0  0.63007  0.63300  0.45315  1.0000
  O   O46       1.0  0.63007  0.63300  0.54684  1.0000
  H   H92       1.0  0.65491  0.65769  0.58259  1.0000
  C   C247      1.0  0.28245  0.72018  0.52374  1.0000
  C   C248      1.0  0.29502  0.70768  0.54746  1.0000
  C   C249      1.0  0.30760  0.69517  0.52373  1.0000
  C   C250      1.0  0.30760  0.69517  0.47629  1.0000
  C   C251      1.0  0.29502  0.70767  0.45255  1.0000
  C   C252      1.0  0.28245  0.72018  0.47628  1.0000
  C   C253      1.0  0.32018  0.68266  0.45256  1.0000
  C   C254      1.0  0.33275  0.67016  0.47627  1.0000
  C   C255      1.0  0.33275  0.67016  0.52374  1.0000
  C   C256      1.0  0.32018  0.68267  0.54746  1.0000
  C   C257      1.0  0.26987  0.73268  0.54747  1.0000
  C   C258      1.0  0.26987  0.73268  0.59492  1.0000
  C   C259      1.0  0.28245  0.72018  0.61865  1.0000
  C   C260      1.0  0.29502  0.70767  0.59492  1.0000
  C   C261      1.0  0.26987  0.73268  0.45254  1.0000
  C   C262      1.0  0.26987  0.73268  0.40510  1.0000
  C   C263      1.0  0.28245  0.72018  0.38137  1.0000
  C   C264      1.0  0.29502  0.70768  0.40508  1.0000
  C   C265      1.0  0.28245  0.72018  0.33390  1.0000
  C   C266      1.0  0.26987  0.73268  0.31016  1.0000
  C   C267      1.0  0.25729  0.74519  0.33389  1.0000
  C   C268      1.0  0.25729  0.74519  0.38136  1.0000
  C   C269      1.0  0.34533  0.65766  0.54747  1.0000
  C   C270      1.0  0.35791  0.64515  0.52374  1.0000
  C   C271      1.0  0.35791  0.64515  0.47628  1.0000
  C   C272      1.0  0.34533  0.65766  0.45254  1.0000
  H   H93       1.0  0.32017  0.68267  0.41740  1.0000
  H   H94       1.0  0.32018  0.68267  0.58259  1.0000
  H   H95       1.0  0.26056  0.74194  0.52989  1.0000
  H   H96       1.0  0.30433  0.69842  0.61248  1.0000
  H   H97       1.0  0.26056  0.74194  0.47011  1.0000
  H   H98       1.0  0.30433  0.69842  0.38751  1.0000
  H   H99       1.0  0.29176  0.71092  0.31633  1.0000
  O   O47       1.0  0.26987  0.73268  0.26394  1.0000
  O   O48       1.0  0.24504  0.75737  0.31078  1.0000
  H   H100      1.0  0.24798  0.75444  0.39893  1.0000
  H   H101      1.0  0.34533  0.65766  0.58260  1.0000
  O   O49       1.0  0.37016  0.63297  0.54686  1.0000
  O   O50       1.0  0.37016  0.63298  0.45316  1.0000
  H   H102      1.0  0.34533  0.65766  0.41741  1.0000
  C   C273      1.0  0.28245  0.72018  0.66612  1.0000
  C   C274      1.0  0.26987  0.73268  0.68985  1.0000
  C   C275      1.0  0.25729  0.74519  0.66611  1.0000
  C   C276      1.0  0.25729  0.74519  0.61864  1.0000
  H   H103      1.0  0.29176  0.71092  0.68368  1.0000
  O   O51       1.0  0.26987  0.73268  0.73608  1.0000
  O   O52       1.0  0.24504  0.75737  0.68923  1.0000
  H   H104      1.0  0.24798  0.75444  0.60109  1.0000
  C   C277      1.0  0.28244  0.28154  0.52374  1.0000
  C   C278      1.0  0.29501  0.29404  0.54746  1.0000
  C   C279      1.0  0.30759  0.30654  0.52373  1.0000
  C   C280      1.0  0.30759  0.30655  0.47629  1.0000
  C   C281      1.0  0.29501  0.29404  0.45255  1.0000
  C   C282      1.0  0.28244  0.28154  0.47628  1.0000
  C   C283      1.0  0.32017  0.31905  0.45256  1.0000
  C   C284      1.0  0.33274  0.33155  0.47627  1.0000
  C   C285      1.0  0.33275  0.33155  0.52374  1.0000
  C   C286      1.0  0.32017  0.31905  0.54746  1.0000
  C   C287      1.0  0.26986  0.26903  0.54747  1.0000
  C   C288      1.0  0.26986  0.26903  0.59492  1.0000
  C   C289      1.0  0.28244  0.28154  0.61865  1.0000
  C   C290      1.0  0.29501  0.29404  0.59492  1.0000
  C   C291      1.0  0.26986  0.26903  0.45254  1.0000
  C   C292      1.0  0.26986  0.26903  0.40510  1.0000
  C   C293      1.0  0.28244  0.28154  0.38137  1.0000
  C   C294      1.0  0.29501  0.29404  0.40508  1.0000
  C   C295      1.0  0.28244  0.28154  0.33390  1.0000
  C   C296      1.0  0.26986  0.26903  0.31016  1.0000
  C   C297      1.0  0.25728  0.25653  0.33389  1.0000
  C   C298      1.0  0.25728  0.25653  0.38136  1.0000
  C   C299      1.0  0.34532  0.34406  0.54747  1.0000
  C   C300      1.0  0.35790  0.35657  0.52374  1.0000
  C   C301      1.0  0.35790  0.35656  0.47628  1.0000
  C   C302      1.0  0.34532  0.34406  0.45254  1.0000
  H   H105      1.0  0.32017  0.31905  0.41740  1.0000
  H   H106      1.0  0.32017  0.31905  0.58259  1.0000
  H   H107      1.0  0.26055  0.25977  0.52989  1.0000
  H   H108      1.0  0.30432  0.30330  0.61248  1.0000
  H   H109      1.0  0.26055  0.25978  0.47011  1.0000
  H   H110      1.0  0.30432  0.30330  0.38751  1.0000
  H   H111      1.0  0.29175  0.29079  0.31633  1.0000
  O   O53       1.0  0.26986  0.26903  0.26394  1.0000
  O   O54       1.0  0.24503  0.24435  0.31078  1.0000
  H   H112      1.0  0.24797  0.24727  0.39893  1.0000
  H   H113      1.0  0.34532  0.34406  0.58260  1.0000
  O   O55       1.0  0.37015  0.36874  0.54686  1.0000
  O   O56       1.0  0.37015  0.36874  0.45316  1.0000
  H   H114      1.0  0.34532  0.34406  0.41741  1.0000
  C   C303      1.0  0.28244  0.28154  0.66612  1.0000
  C   C304      1.0  0.26986  0.26903  0.68985  1.0000
  C   C305      1.0  0.25728  0.25653  0.66611  1.0000
  C   C306      1.0  0.25728  0.25653  0.61864  1.0000
  H   H115      1.0  0.29175  0.29079  0.68368  1.0000
  O   O57       1.0  0.26986  0.26903  0.73608  1.0000
  O   O58       1.0  0.24503  0.24435  0.68923  1.0000
  H   H116      1.0  0.24797  0.24727  0.60109  1.0000
  C   C307      1.0  0.69267  0.30657  0.47628  1.0000
  C   C308      1.0  0.69268  0.30656  0.52372  1.0000
  C   C309      1.0  0.70525  0.29406  0.54745  1.0000
  C   C310      1.0  0.71783  0.28156  0.52374  1.0000
  C   C311      1.0  0.71783  0.28156  0.47627  1.0000
  C   C312      1.0  0.70525  0.29406  0.45254  1.0000
  C   C313      1.0  0.73040  0.26905  0.54747  1.0000
  C   C314      1.0  0.73040  0.26905  0.59491  1.0000
  C   C315      1.0  0.71783  0.28156  0.61865  1.0000
  C   C316      1.0  0.70525  0.29406  0.59492  1.0000
  C   C317      1.0  0.68010  0.31907  0.45255  1.0000
  C   C318      1.0  0.66753  0.33158  0.47626  1.0000
  C   C319      1.0  0.66752  0.33158  0.52373  1.0000
  C   C320      1.0  0.68010  0.31907  0.54746  1.0000
  C   C321      1.0  0.70525  0.29406  0.40507  1.0000
  C   C322      1.0  0.71783  0.28156  0.38136  1.0000
  C   C323      1.0  0.73040  0.26905  0.40509  1.0000
  C   C324      1.0  0.73040  0.26905  0.45253  1.0000
  C   C325      1.0  0.74298  0.25654  0.38135  1.0000
  C   C326      1.0  0.74298  0.25654  0.33389  1.0000
  C   C327      1.0  0.73040  0.26905  0.31016  1.0000
  C   C328      1.0  0.71783  0.28156  0.33389  1.0000
  C   C329      1.0  0.71783  0.28156  0.66611  1.0000
  C   C330      1.0  0.73040  0.26905  0.68984  1.0000
  C   C331      1.0  0.74298  0.25654  0.66611  1.0000
  C   C332      1.0  0.74298  0.25654  0.61864  1.0000
  H   H117      1.0  0.73971  0.25979  0.52988  1.0000
  H   H118      1.0  0.69594  0.30332  0.61248  1.0000
  H   H119      1.0  0.68010  0.31907  0.41740  1.0000
  H   H120      1.0  0.68010  0.31907  0.58258  1.0000
  H   H121      1.0  0.69594  0.30332  0.38751  1.0000
  H   H122      1.0  0.73971  0.25979  0.47010  1.0000
  H   H123      1.0  0.75229  0.24729  0.39892  1.0000
  O   O59       1.0  0.75523  0.24436  0.31077  1.0000
  O   O60       1.0  0.73040  0.26905  0.26393  1.0000
  H   H124      1.0  0.70852  0.29081  0.31633  1.0000
  H   H125      1.0  0.70852  0.29081  0.68367  1.0000
  O   O61       1.0  0.73040  0.26905  0.73607  1.0000
  O   O62       1.0  0.75523  0.24436  0.68922  1.0000
  H   H126      1.0  0.75229  0.24729  0.60108  1.0000
  C   C333      1.0  0.65495  0.34408  0.54747  1.0000
  C   C334      1.0  0.64237  0.35659  0.52374  1.0000
  C   C335      1.0  0.64237  0.35659  0.47627  1.0000
  C   C336      1.0  0.65495  0.34408  0.45253  1.0000
  H   H127      1.0  0.65495  0.34408  0.58259  1.0000
  O   O63       1.0  0.63012  0.36877  0.54685  1.0000
  O   O64       1.0  0.63012  0.36877  0.45316  1.0000
  H   H128      1.0  0.65495  0.34408  0.41741  1.0000
  Cu  Cu1       1.0  0.25013  0.25086  0.25010  1.0000
  Cu  Cu2       1.0  0.75013  0.25085  0.25010  1.0000
  Cu  Cu3       1.0  0.75014  0.75085  0.25000  1.0000
  Cu  Cu4       1.0  0.25013  0.75086  0.25000  1.0000
  Cu  Cu5       1.0  0.25013  0.75086  0.75010  1.0000
  Cu  Cu6       1.0  0.25013  0.25086  0.75010  1.0000
  Cu  Cu7       1.0  0.75013  0.25085  0.75010  1.0000
  Cu  Cu8       1.0  0.75014  0.75085  0.75010  1.0000
  Zn  Zn1       1.0  0.11727  0.11949  0.00010  1.0000
  Zn  Zn2       1.0  0.88298  0.11946  0.00010  1.0000
  Zn  Zn3       1.0  0.88303  0.88220  0.00010  1.0000
  Zn  Zn4       1.0  0.11725  0.88223  0.00010  1.0000
  Zn  Zn5       1.0  0.61724  0.61952  0.50000  1.0000
  Zn  Zn6       1.0  0.38301  0.61949  0.50000  1.0000
  Zn  Zn7       1.0  0.38299  0.38223  0.50000  1.0000
  Zn  Zn8       1.0  0.61728  0.38225  0.50000  1.0000
