data_image0
_chemical_formula_structural       Fe16C7NCNCNC3NCNC11NCNC7NHO2H2O2H2O2H2O2HNiC7NCNCNC3NCNC11NCNC7NHO2H2O2H2O2H2O2HNiC7NCNCNC3NCNC11NCNC7NHO2H2O2H2O2H2O2HNiC7NCNCNC3NCNC11NCNC7NHO2H2O2H2O2H2O2HNiC7NCNCNC3NCNC11NCNC7NHO2H2O2H2O2H2O2HNiC7NCNCNC3NCNC11NCNC7NHO2H2O2H2O2H2O2HNiC7NCNCNC3NCNC11NCNC7NHO2H2O2H2O2H2O2HNiC7NCNCNC3NCNC11NCNC7NHO2H2O2H2O2H2O2HNiC7NCNCNC3NCNC11NCNC7NHO2H2O2H2O2H2O2HNiC7NCNCNC3NCNC11NCNC7NHO2H2O2H2O2H2O2HNiC7NCNCNC3NCNC11NCNC7NHO2H2O2H2O2H2O2HNiC7NCNCNC3NCNC11NCNC7NHO2H2O2H2O2H2O2HNi
_chemical_formula_sum              "Fe16 C384 N96 H96 O96 Ni12"
_cell_length_a       27.3155
_cell_length_b       27.3156
_cell_length_c       54.629
_cell_angle_alpha    90.0023
_cell_angle_beta     89.9994
_cell_angle_gamma    89.9994

_space_group_name_H-M_alt    "P 1"
_space_group_IT_number       1

loop_
  _space_group_symop_operation_xyz
  'x, y, z'

loop_
  _atom_site_type_symbol
  _atom_site_label
  _atom_site_symmetry_multiplicity
  _atom_site_fract_x
  _atom_site_fract_y
  _atom_site_fract_z
  _atom_site_occupancy
  Fe  Fe1       1.0  0.25083  0.02504  0.12989  1.0000
  Fe  Fe2       1.0  0.25084  0.02526  0.37990  1.0000
  Fe  Fe3       1.0  0.25059  0.02523  0.62991  1.0000
  Fe  Fe4       1.0  0.25062  0.02504  0.87988  1.0000
  Fe  Fe5       1.0  0.75062  0.02522  0.87980  1.0000
  Fe  Fe6       1.0  0.75059  0.02500  0.62980  1.0000
  Fe  Fe7       1.0  0.75078  0.02507  0.37981  1.0000
  Fe  Fe8       1.0  0.75078  0.02522  0.12979  1.0000
  Fe  Fe9       1.0  0.75080  0.52503  0.62988  1.0000
  Fe  Fe10      1.0  0.75085  0.52520  0.87990  1.0000
  Fe  Fe11      1.0  0.75063  0.52521  0.12988  1.0000
  Fe  Fe12      1.0  0.75067  0.52512  0.37986  1.0000
  Fe  Fe13      1.0  0.25059  0.52529  0.37978  1.0000
  Fe  Fe14      1.0  0.25062  0.52502  0.12980  1.0000
  Fe  Fe15      1.0  0.25080  0.52498  0.87978  1.0000
  Fe  Fe16      1.0  0.25083  0.52524  0.62977  1.0000
  C   C1        1.0  0.19016  0.88368  0.12709  1.0000
  C   C2        1.0  0.20454  0.93850  0.12703  1.0000
  C   C3        1.0  0.16427  0.97880  0.12694  1.0000
  C   C4        1.0  0.10943  0.96448  0.12690  1.0000
  C   C5        1.0  0.09697  0.90981  0.12695  1.0000
  C   C6        1.0  0.13548  0.87127  0.12706  1.0000
  C   C7        1.0  0.10979  0.82154  0.12709  1.0000
  N   N1        1.0  0.05410  0.82848  0.12700  1.0000
  C   C8        1.0  0.04721  0.88417  0.12692  1.0000
  N   N2        1.0  0.00010  0.91158  0.12680  1.0000
  C   C9        1.0  0.95431  0.88421  0.12682  1.0000
  N   N3        1.0  0.94739  0.82852  0.12690  1.0000
  C   C10       1.0  0.89170  0.82162  0.12694  1.0000
  C   C11       1.0  0.86604  0.87137  0.12686  1.0000
  C   C12       1.0  0.90457  0.90989  0.12679  1.0000
  N   N4        1.0  0.94735  0.72181  0.12695  1.0000
  C   C13       1.0  0.89166  0.72873  0.12702  1.0000
  N   N5        1.0  0.86428  0.77519  0.12706  1.0000
  C   C14       1.0  0.86597  0.67899  0.12697  1.0000
  C   C15       1.0  0.90448  0.64046  0.12687  1.0000
  C   C16       1.0  0.95424  0.66612  0.12684  1.0000
  C   C17       1.0  0.89212  0.96455  0.12675  1.0000
  C   C18       1.0  0.83729  0.97890  0.12675  1.0000
  C   C19       1.0  0.79702  0.93862  0.12677  1.0000
  C   C20       1.0  0.81137  0.88380  0.12684  1.0000
  C   C21       1.0  0.89203  0.58580  0.12683  1.0000
  C   C22       1.0  0.83721  0.57146  0.12690  1.0000
  C   C23       1.0  0.79694  0.61175  0.12699  1.0000
  C   C24       1.0  0.81130  0.66657  0.12702  1.0000
  N   N6        1.0  0.05405  0.72177  0.12693  1.0000
  C   C25       1.0  0.04712  0.66608  0.12681  1.0000
  N   N7        1.0  0.00010  0.63871  0.12673  1.0000
  C   C26       1.0  0.09685  0.64039  0.12682  1.0000
  C   C27       1.0  0.13539  0.67889  0.12694  1.0000
  C   C28       1.0  0.10975  0.72865  0.12702  1.0000
  C   C29       1.0  0.19005  0.66642  0.12694  1.0000
  C   C30       1.0  0.20436  0.61158  0.12683  1.0000
  C   C31       1.0  0.16405  0.57132  0.12675  1.0000
  C   C32       1.0  0.10924  0.58572  0.12674  1.0000
  N   N8        1.0  0.13715  0.77509  0.12715  1.0000
  H   H1        1.0  0.21688  0.85605  0.12715  1.0000
  O   O1        1.0  0.25048  0.95093  0.12705  1.0000
  O   O2        1.0  0.17675  0.02473  0.12691  1.0000
  H   H2        1.0  0.08182  0.99122  0.12683  1.0000
  H   H3        1.0  0.91974  0.99129  0.12673  1.0000
  O   O3        1.0  0.82483  0.02483  0.12675  1.0000
  O   O4        1.0  0.75108  0.95107  0.12673  1.0000
  H   H4        1.0  0.78464  0.85618  0.12687  1.0000
  H   H5        1.0  0.91965  0.55906  0.12676  1.0000
  O   O5        1.0  0.82475  0.52553  0.12691  1.0000
  O   O6        1.0  0.75101  0.59932  0.12703  1.0000
  H   H6        1.0  0.78457  0.69420  0.12707  1.0000
  H   H7        1.0  0.21681  0.69402  0.12700  1.0000
  O   O7        1.0  0.25029  0.59909  0.12679  1.0000
  O   O8        1.0  0.17648  0.52538  0.12669  1.0000
  H   H8        1.0  0.08160  0.55901  0.12668  1.0000
  Ni  Ni1       1.0  0.00010  0.77515  0.12699  1.0000
  C   C33       1.0  0.31128  0.66661  0.37708  1.0000
  C   C34       1.0  0.29690  0.61179  0.37702  1.0000
  C   C35       1.0  0.33716  0.57149  0.37693  1.0000
  C   C36       1.0  0.39200  0.58582  0.37688  1.0000
  C   C37       1.0  0.40446  0.64048  0.37694  1.0000
  C   C38       1.0  0.36596  0.67902  0.37705  1.0000
  C   C39       1.0  0.39165  0.72875  0.37709  1.0000
  N   N9        1.0  0.44733  0.72182  0.37700  1.0000
  C   C40       1.0  0.45422  0.66613  0.37691  1.0000
  N   N10       1.0  0.50066  0.63872  0.37679  1.0000
  C   C41       1.0  0.54712  0.66609  0.37681  1.0000
  N   N11       1.0  0.55404  0.72178  0.37690  1.0000
  C   C42       1.0  0.60974  0.72868  0.37694  1.0000
  C   C43       1.0  0.63539  0.67893  0.37685  1.0000
  C   C44       1.0  0.59687  0.64041  0.37678  1.0000
  N   N12       1.0  0.55408  0.82848  0.37696  1.0000
  C   C45       1.0  0.60978  0.82156  0.37703  1.0000
  N   N13       1.0  0.63715  0.77511  0.37706  1.0000
  C   C46       1.0  0.63546  0.87130  0.37698  1.0000
  C   C47       1.0  0.59695  0.90984  0.37688  1.0000
  C   C48       1.0  0.54719  0.88418  0.37685  1.0000
  C   C49       1.0  0.60931  0.58574  0.37674  1.0000
  C   C50       1.0  0.66414  0.57140  0.37674  1.0000
  C   C51       1.0  0.70442  0.61168  0.37676  1.0000
  C   C52       1.0  0.69006  0.66650  0.37683  1.0000
  C   C53       1.0  0.60940  0.96450  0.37684  1.0000
  C   C54       1.0  0.66422  0.97883  0.37692  1.0000
  C   C55       1.0  0.70449  0.93855  0.37700  1.0000
  C   C56       1.0  0.69013  0.88372  0.37703  1.0000
  N   N14       1.0  0.44738  0.82852  0.37693  1.0000
  C   C57       1.0  0.45431  0.88421  0.37682  1.0000
  N   N15       1.0  0.50076  0.91159  0.37674  1.0000
  C   C58       1.0  0.40459  0.90990  0.37683  1.0000
  C   C59       1.0  0.36604  0.87140  0.37695  1.0000
  C   C60       1.0  0.39169  0.82164  0.37703  1.0000
  C   C61       1.0  0.31138  0.88388  0.37695  1.0000
  C   C62       1.0  0.29707  0.93872  0.37684  1.0000
  C   C63       1.0  0.33738  0.97897  0.37677  1.0000
  C   C64       1.0  0.39219  0.96458  0.37676  1.0000
  N   N16       1.0  0.36428  0.77521  0.37715  1.0000
  H   H9        1.0  0.28456  0.69425  0.37714  1.0000
  O   O9        1.0  0.25096  0.59936  0.37704  1.0000
  O   O10       1.0  0.32468  0.52557  0.37689  1.0000
  H   H10       1.0  0.41961  0.55908  0.37682  1.0000
  H   H11       1.0  0.58170  0.55900  0.37671  1.0000
  O   O11       1.0  0.67660  0.52546  0.37673  1.0000
  O   O12       1.0  0.75036  0.59923  0.37672  1.0000
  H   H12       1.0  0.71679  0.69412  0.37686  1.0000
  H   H13       1.0  0.58179  0.99124  0.37678  1.0000
  O   O13       1.0  0.67669  0.02476  0.37693  1.0000
  O   O14       1.0  0.75043  0.95098  0.37705  1.0000
  H   H14       1.0  0.71686  0.85610  0.37708  1.0000
  H   H15       1.0  0.28463  0.85627  0.37701  1.0000
  O   O15       1.0  0.25114  0.95120  0.37680  1.0000
  O   O16       1.0  0.32496  0.02491  0.37672  1.0000
  H   H16       1.0  0.41984  0.99129  0.37670  1.0000
  Ni  Ni2       1.0  0.50070  0.77515  0.37699  1.0000
  C   C65       1.0  0.69015  0.38365  0.62709  1.0000
  C   C66       1.0  0.70454  0.43847  0.62702  1.0000
  C   C67       1.0  0.66428  0.47877  0.62693  1.0000
  C   C68       1.0  0.60944  0.46445  0.62689  1.0000
  C   C69       1.0  0.59697  0.40979  0.62695  1.0000
  C   C70       1.0  0.63547  0.37124  0.62706  1.0000
  C   C71       1.0  0.60978  0.32151  0.62709  1.0000
  N   N17       1.0  0.55409  0.32845  0.62700  1.0000
  C   C72       1.0  0.54721  0.38415  0.62692  1.0000
  N   N18       1.0  0.50077  0.41156  0.62680  1.0000
  C   C73       1.0  0.45431  0.38419  0.62682  1.0000
  N   N19       1.0  0.44738  0.32850  0.62690  1.0000
  C   C74       1.0  0.39169  0.32161  0.62694  1.0000
  C   C75       1.0  0.36604  0.37136  0.62686  1.0000
  C   C76       1.0  0.40457  0.40988  0.62679  1.0000
  N   N20       1.0  0.44733  0.22180  0.62696  1.0000
  C   C77       1.0  0.39164  0.22872  0.62703  1.0000
  N   N21       1.0  0.36427  0.27518  0.62707  1.0000
  C   C78       1.0  0.36595  0.17899  0.62699  1.0000
  C   C79       1.0  0.40446  0.14045  0.62688  1.0000
  C   C80       1.0  0.45422  0.16610  0.62685  1.0000
  C   C81       1.0  0.39212  0.46454  0.62675  1.0000
  C   C82       1.0  0.33730  0.47889  0.62675  1.0000
  C   C83       1.0  0.29702  0.43862  0.62677  1.0000
  C   C84       1.0  0.31137  0.38379  0.62684  1.0000
  C   C85       1.0  0.39201  0.08579  0.62684  1.0000
  C   C86       1.0  0.33718  0.07146  0.62692  1.0000
  C   C87       1.0  0.29692  0.11175  0.62700  1.0000
  C   C88       1.0  0.31128  0.16657  0.62703  1.0000
  N   N22       1.0  0.55404  0.22175  0.62694  1.0000
  C   C89       1.0  0.54710  0.16606  0.62682  1.0000
  N   N23       1.0  0.50065  0.13869  0.62674  1.0000
  C   C90       1.0  0.59682  0.14036  0.62683  1.0000
  C   C91       1.0  0.63537  0.17886  0.62695  1.0000
  C   C92       1.0  0.60973  0.22863  0.62703  1.0000
  C   C93       1.0  0.69003  0.16638  0.62695  1.0000
  C   C94       1.0  0.70434  0.11154  0.62684  1.0000
  C   C95       1.0  0.66403  0.07129  0.62677  1.0000
  C   C96       1.0  0.60921  0.08569  0.62676  1.0000
  N   N24       1.0  0.63714  0.27506  0.62715  1.0000
  H   H17       1.0  0.71687  0.35601  0.62714  1.0000
  O   O17       1.0  0.75048  0.45089  0.62704  1.0000
  O   O18       1.0  0.67676  0.52470  0.62690  1.0000
  H   H18       1.0  0.58183  0.49119  0.62682  1.0000
  H   H19       1.0  0.41974  0.49128  0.62672  1.0000
  O   O19       1.0  0.32484  0.52483  0.62674  1.0000
  O   O20       1.0  0.25108  0.45107  0.62673  1.0000
  H   H20       1.0  0.28464  0.35617  0.62687  1.0000
  H   H21       1.0  0.41962  0.05905  0.62678  1.0000
  O   O21       1.0  0.32472  0.02553  0.62693  1.0000
  O   O22       1.0  0.25098  0.09932  0.62705  1.0000
  H   H22       1.0  0.28455  0.19419  0.62708  1.0000
  H   H23       1.0  0.71679  0.19398  0.62701  1.0000
  O   O23       1.0  0.75026  0.09906  0.62680  1.0000
  O   O24       1.0  0.67645  0.02535  0.62671  1.0000
  H   H24       1.0  0.58157  0.05898  0.62669  1.0000
  Ni  Ni3       1.0  0.50072  0.27513  0.62699  1.0000
  C   C97       1.0  0.81127  0.16656  0.87710  1.0000
  C   C98       1.0  0.79689  0.11174  0.87704  1.0000
  C   C99       1.0  0.83715  0.07143  0.87695  1.0000
  C   C100      1.0  0.89199  0.08576  0.87690  1.0000
  C   C101      1.0  0.90446  0.14042  0.87696  1.0000
  C   C102      1.0  0.86595  0.17896  0.87707  1.0000
  C   C103      1.0  0.89164  0.22869  0.87709  1.0000
  N   N25       1.0  0.94733  0.22176  0.87701  1.0000
  C   C104      1.0  0.95422  0.16606  0.87692  1.0000
  N   N26       1.0  0.00010  0.13865  0.87681  1.0000
  C   C105      1.0  0.04712  0.16602  0.87682  1.0000
  N   N27       1.0  0.05404  0.22171  0.87690  1.0000
  C   C106      1.0  0.10974  0.22860  0.87694  1.0000
  C   C107      1.0  0.13539  0.17886  0.87686  1.0000
  C   C108      1.0  0.09686  0.14034  0.87679  1.0000
  N   N28       1.0  0.05409  0.32842  0.87696  1.0000
  C   C109      1.0  0.10978  0.32149  0.87703  1.0000
  N   N29       1.0  0.13715  0.27504  0.87706  1.0000
  C   C110      1.0  0.13546  0.37123  0.87698  1.0000
  C   C111      1.0  0.09695  0.40976  0.87688  1.0000
  C   C112      1.0  0.04720  0.38411  0.87685  1.0000
  C   C113      1.0  0.10931  0.08567  0.87675  1.0000
  C   C114      1.0  0.16413  0.07132  0.87675  1.0000
  C   C115      1.0  0.20441  0.11160  0.87677  1.0000
  C   C116      1.0  0.19006  0.16642  0.87684  1.0000
  C   C117      1.0  0.10941  0.46443  0.87683  1.0000
  C   C118      1.0  0.16423  0.47876  0.87691  1.0000
  C   C119      1.0  0.20450  0.43847  0.87699  1.0000
  C   C120      1.0  0.19014  0.38365  0.87702  1.0000
  N   N30       1.0  0.94738  0.32846  0.87693  1.0000
  C   C121      1.0  0.95432  0.38415  0.87682  1.0000
  N   N31       1.0  0.00010  0.41152  0.87673  1.0000
  C   C122      1.0  0.90459  0.40984  0.87683  1.0000
  C   C123      1.0  0.86604  0.37134  0.87695  1.0000
  C   C124      1.0  0.89169  0.32158  0.87703  1.0000
  C   C125      1.0  0.81139  0.38382  0.87695  1.0000
  C   C126      1.0  0.79708  0.43866  0.87684  1.0000
  C   C127      1.0  0.83739  0.47891  0.87676  1.0000
  C   C128      1.0  0.89220  0.46452  0.87675  1.0000
  N   N32       1.0  0.86428  0.27515  0.87716  1.0000
  H   H25       1.0  0.78456  0.19419  0.87715  1.0000
  O   O25       1.0  0.75095  0.09931  0.87706  1.0000
  O   O26       1.0  0.82467  0.02551  0.87691  1.0000
  H   H26       1.0  0.91960  0.05901  0.87684  1.0000
  H   H27       1.0  0.08169  0.05893  0.87673  1.0000
  O   O27       1.0  0.17659  0.02539  0.87675  1.0000
  O   O28       1.0  0.25035  0.09915  0.87673  1.0000
  H   H28       1.0  0.21679  0.19405  0.87687  1.0000
  H   H29       1.0  0.08180  0.49117  0.87677  1.0000
  O   O29       1.0  0.17670  0.52469  0.87691  1.0000
  O   O30       1.0  0.25044  0.45090  0.87704  1.0000
  H   H30       1.0  0.21686  0.35603  0.87707  1.0000
  H   H31       1.0  0.78463  0.35622  0.87701  1.0000
  O   O31       1.0  0.75115  0.45115  0.87680  1.0000
  O   O32       1.0  0.82497  0.52486  0.87670  1.0000
  H   H32       1.0  0.91985  0.49123  0.87669  1.0000
  Ni  Ni4       1.0  0.00010  0.27508  0.87699  1.0000
  C   C129      1.0  0.19016  0.01972  0.45058  1.0000
  C   C130      1.0  0.20454  0.01961  0.42317  1.0000
  C   C131      1.0  0.16428  0.01942  0.40301  1.0000
  C   C132      1.0  0.10944  0.01931  0.41018  1.0000
  C   C133      1.0  0.09697  0.01941  0.43751  1.0000
  C   C134      1.0  0.13548  0.01964  0.45678  1.0000
  C   C135      1.0  0.10978  0.01968  0.48165  1.0000
  N   N33       1.0  0.05410  0.01949  0.47818  1.0000
  C   C136      1.0  0.04721  0.01932  0.45033  1.0000
  N   N34       1.0  0.00010  0.01907  0.43662  1.0000
  C   C137      1.0  0.95431  0.01908  0.45031  1.0000
  N   N35       1.0  0.94739  0.01924  0.47815  1.0000
  C   C138      1.0  0.89169  0.01929  0.48160  1.0000
  C   C139      1.0  0.86604  0.01912  0.45673  1.0000
  C   C140      1.0  0.90457  0.01901  0.43747  1.0000
  N   N36       1.0  0.94734  0.01933  0.53151  1.0000
  C   C141      1.0  0.89165  0.01945  0.52805  1.0000
  N   N37       1.0  0.86427  0.01952  0.50482  1.0000
  C   C142      1.0  0.86596  0.01934  0.55292  1.0000
  C   C143      1.0  0.90447  0.01914  0.57219  1.0000
  C   C144      1.0  0.95422  0.01911  0.55936  1.0000
  C   C145      1.0  0.89213  0.01893  0.41013  1.0000
  C   C146      1.0  0.83730  0.01891  0.40296  1.0000
  C   C147      1.0  0.79702  0.01893  0.42310  1.0000
  C   C148      1.0  0.81137  0.01907  0.45051  1.0000
  C   C149      1.0  0.89201  0.01905  0.59952  1.0000
  C   C150      1.0  0.83719  0.01917  0.60668  1.0000
  C   C151      1.0  0.79693  0.01933  0.58654  1.0000
  C   C152      1.0  0.81129  0.01940  0.55913  1.0000
  N   N38       1.0  0.05404  0.01933  0.53153  1.0000
  C   C153      1.0  0.04711  0.01909  0.55938  1.0000
  N   N39       1.0  0.00010  0.01889  0.57306  1.0000
  C   C154      1.0  0.09683  0.01912  0.57223  1.0000
  C   C155      1.0  0.13538  0.01938  0.55298  1.0000
  C   C156      1.0  0.10974  0.01954  0.52809  1.0000
  C   C157      1.0  0.19004  0.01940  0.55921  1.0000
  C   C158      1.0  0.20434  0.01918  0.58664  1.0000
  C   C159      1.0  0.16403  0.01900  0.60676  1.0000
  C   C160      1.0  0.10922  0.01897  0.59956  1.0000
  N   N40       1.0  0.13715  0.01981  0.50487  1.0000
  H   H33       1.0  0.21687  0.01984  0.46440  1.0000
  O   O33       1.0  0.25048  0.01967  0.41695  1.0000
  O   O34       1.0  0.17676  0.01936  0.38005  1.0000
  H   H34       1.0  0.08183  0.01917  0.39680  1.0000
  H   H35       1.0  0.91974  0.01890  0.39676  1.0000
  O   O35       1.0  0.82484  0.01890  0.37999  1.0000
  O   O36       1.0  0.75108  0.01883  0.41687  1.0000
  H   H36       1.0  0.78464  0.01911  0.46432  1.0000
  H   H37       1.0  0.91962  0.01892  0.61289  1.0000
  O   O37       1.0  0.82472  0.01918  0.62965  1.0000
  O   O38       1.0  0.75099  0.01941  0.59276  1.0000
  H   H38       1.0  0.78456  0.01950  0.54531  1.0000
  H   H39       1.0  0.21679  0.01954  0.54541  1.0000
  O   O39       1.0  0.25027  0.01911  0.59288  1.0000
  O   O40       1.0  0.17645  0.01889  0.62973  1.0000
  H   H40       1.0  0.08157  0.01882  0.61292  1.0000
  Ni  Ni5       1.0  0.00010  0.01943  0.50484  1.0000
  C   C161      1.0  0.25629  0.58566  0.80911  1.0000
  C   C162      1.0  0.25642  0.57128  0.83652  1.0000
  C   C163      1.0  0.25658  0.61154  0.85667  1.0000
  C   C164      1.0  0.25664  0.66638  0.84951  1.0000
  C   C165      1.0  0.25653  0.67885  0.82218  1.0000
  C   C166      1.0  0.25633  0.64034  0.80291  1.0000
  C   C167      1.0  0.25626  0.66604  0.77804  1.0000
  N   N41       1.0  0.25640  0.72172  0.78151  1.0000
  C   C168      1.0  0.25657  0.72861  0.80936  1.0000
  N   N42       1.0  0.25679  0.77504  0.82307  1.0000
  C   C169      1.0  0.25674  0.82151  0.80938  1.0000
  N   N43       1.0  0.25657  0.82843  0.78154  1.0000
  C   C170      1.0  0.25646  0.88413  0.77809  1.0000
  C   C171      1.0  0.25662  0.90978  0.80297  1.0000
  C   C172      1.0  0.25676  0.87125  0.82223  1.0000
  N   N44       1.0  0.25646  0.82848  0.72818  1.0000
  C   C173      1.0  0.25629  0.88418  0.73165  1.0000
  N   N45       1.0  0.25621  0.91155  0.75487  1.0000
  C   C174      1.0  0.25638  0.90986  0.70678  1.0000
  C   C175      1.0  0.25660  0.87136  0.68751  1.0000
  C   C176      1.0  0.25668  0.82160  0.70033  1.0000
  C   C177      1.0  0.25684  0.88369  0.84956  1.0000
  C   C178      1.0  0.25681  0.93852  0.85674  1.0000
  C   C179      1.0  0.25676  0.97880  0.83660  1.0000
  C   C180      1.0  0.25662  0.96445  0.80919  1.0000
  C   C181      1.0  0.25668  0.88381  0.66018  1.0000
  C   C182      1.0  0.25651  0.93864  0.65301  1.0000
  C   C183      1.0  0.25632  0.97890  0.67316  1.0000
  C   C184      1.0  0.25627  0.96453  0.70057  1.0000
  N   N46       1.0  0.25655  0.72178  0.72816  1.0000
  C   C185      1.0  0.25678  0.72872  0.70031  1.0000
  N   N47       1.0  0.25693  0.77517  0.68663  1.0000
  C   C186      1.0  0.25679  0.67899  0.68746  1.0000
  C   C187      1.0  0.25656  0.64044  0.70671  1.0000
  C   C188      1.0  0.25639  0.66609  0.73159  1.0000
  C   C189      1.0  0.25658  0.58579  0.70047  1.0000
  C   C190      1.0  0.25682  0.57148  0.67305  1.0000
  C   C191      1.0  0.25695  0.61179  0.65292  1.0000
  C   C192      1.0  0.25695  0.66661  0.66012  1.0000
  N   N48       1.0  0.25615  0.63867  0.75481  1.0000
  H   H41       1.0  0.25619  0.55895  0.79529  1.0000
  O   O41       1.0  0.25640  0.52534  0.84273  1.0000
  O   O42       1.0  0.25665  0.59905  0.87963  1.0000
  H   H42       1.0  0.25676  0.69399  0.86288  1.0000
  H   H43       1.0  0.25690  0.85607  0.86293  1.0000
  O   O43       1.0  0.25682  0.95097  0.87971  1.0000
  O   O44       1.0  0.25682  0.02473  0.84282  1.0000
  H   H44       1.0  0.25656  0.99118  0.79538  1.0000
  H   H45       1.0  0.25683  0.85620  0.64680  1.0000
  O   O45       1.0  0.25649  0.95110  0.63005  1.0000
  O   O46       1.0  0.25620  0.02484  0.66694  1.0000
  H   H46       1.0  0.25615  0.99126  0.71438  1.0000
  H   H47       1.0  0.25647  0.55903  0.71427  1.0000
  O   O47       1.0  0.25692  0.52556  0.66680  1.0000
  O   O48       1.0  0.25707  0.59937  0.62995  1.0000
  H   H48       1.0  0.25706  0.69425  0.64677  1.0000
  Ni  Ni6       1.0  0.25641  0.77510  0.75485  1.0000
  C   C193      1.0  0.31127  0.03056  0.95056  1.0000
  C   C194      1.0  0.29689  0.03068  0.92315  1.0000
  C   C195      1.0  0.33715  0.03087  0.90300  1.0000
  C   C196      1.0  0.39199  0.03097  0.91016  1.0000
  C   C197      1.0  0.40445  0.03087  0.93749  1.0000
  C   C198      1.0  0.36595  0.03064  0.95677  1.0000
  C   C199      1.0  0.39164  0.03059  0.98163  1.0000
  N   N49       1.0  0.44732  0.03078  0.97817  1.0000
  C   C200      1.0  0.45421  0.03095  0.95032  1.0000
  N   N50       1.0  0.50065  0.03120  0.93661  1.0000
  C   C201      1.0  0.54711  0.03119  0.95030  1.0000
  N   N51       1.0  0.55404  0.03102  0.97814  1.0000
  C   C202      1.0  0.60973  0.03096  0.98159  1.0000
  C   C203      1.0  0.63539  0.03114  0.95672  1.0000
  C   C204      1.0  0.59686  0.03125  0.93746  1.0000
  N   N52       1.0  0.55408  0.03092  0.03150  1.0000
  C   C205      1.0  0.60977  0.03079  0.02804  1.0000
  N   N53       1.0  0.63714  0.03073  0.00481  1.0000
  C   C206      1.0  0.63545  0.03090  0.05291  1.0000
  C   C207      1.0  0.59694  0.03110  0.07218  1.0000
  C   C208      1.0  0.54719  0.03114  0.05935  1.0000
  C   C209      1.0  0.60930  0.03134  0.91012  1.0000
  C   C210      1.0  0.66413  0.03135  0.90295  1.0000
  C   C211      1.0  0.70441  0.03133  0.92309  1.0000
  C   C212      1.0  0.69005  0.03118  0.95050  1.0000
  C   C213      1.0  0.60939  0.03119  0.09951  1.0000
  C   C214      1.0  0.66422  0.03106  0.10668  1.0000
  C   C215      1.0  0.70448  0.03090  0.08653  1.0000
  C   C216      1.0  0.69012  0.03083  0.05912  1.0000
  N   N54       1.0  0.44737  0.03093  0.03152  1.0000
  C   C217      1.0  0.45431  0.03116  0.05936  1.0000
  N   N55       1.0  0.50076  0.03135  0.07305  1.0000
  C   C218      1.0  0.40458  0.03113  0.07221  1.0000
  C   C219      1.0  0.36603  0.03088  0.05296  1.0000
  C   C220      1.0  0.39168  0.03073  0.02808  1.0000
  C   C221      1.0  0.31138  0.03086  0.05920  1.0000
  C   C222      1.0  0.29707  0.03108  0.08662  1.0000
  C   C223      1.0  0.33737  0.03125  0.10675  1.0000
  C   C224      1.0  0.39219  0.03128  0.09955  1.0000
  N   N56       1.0  0.36427  0.03046  0.00486  1.0000
  H   H49       1.0  0.28455  0.03044  0.96438  1.0000
  O   O49       1.0  0.25095  0.03062  0.91694  1.0000
  O   O50       1.0  0.32467  0.03093  0.88004  1.0000
  H   H50       1.0  0.41960  0.03111  0.89679  1.0000
  H   H51       1.0  0.58169  0.03138  0.89675  1.0000
  O   O51       1.0  0.67659  0.03137  0.87998  1.0000
  O   O52       1.0  0.75035  0.03143  0.91687  1.0000
  H   H52       1.0  0.71678  0.03114  0.96431  1.0000
  H   H53       1.0  0.58178  0.03131  0.11288  1.0000
  O   O53       1.0  0.67668  0.03105  0.12964  1.0000
  O   O54       1.0  0.75042  0.03082  0.09275  1.0000
  H   H54       1.0  0.71685  0.03073  0.04531  1.0000
  H   H55       1.0  0.28462  0.03072  0.04540  1.0000
  O   O55       1.0  0.25114  0.03115  0.09286  1.0000
  O   O56       1.0  0.32495  0.03136  0.12972  1.0000
  H   H56       1.0  0.41983  0.03142  0.11291  1.0000
  Ni  Ni7       1.0  0.50070  0.03083  0.00483  1.0000
  C   C225      1.0  0.24438  0.08579  0.30920  1.0000
  C   C226      1.0  0.24450  0.07146  0.33662  1.0000
  C   C227      1.0  0.24466  0.11176  0.35675  1.0000
  C   C228      1.0  0.24472  0.16658  0.34956  1.0000
  C   C229      1.0  0.24461  0.17900  0.32223  1.0000
  C   C230      1.0  0.24441  0.14046  0.30297  1.0000
  C   C231      1.0  0.24434  0.16611  0.27810  1.0000
  N   N57       1.0  0.24448  0.22180  0.28154  1.0000
  C   C232      1.0  0.24465  0.22874  0.30939  1.0000
  N   N58       1.0  0.24486  0.27520  0.32307  1.0000
  C   C233      1.0  0.24481  0.32164  0.30937  1.0000
  N   N59       1.0  0.24464  0.32851  0.28152  1.0000
  C   C234      1.0  0.24453  0.38420  0.27805  1.0000
  C   C235      1.0  0.24468  0.40990  0.30291  1.0000
  C   C236      1.0  0.24483  0.37140  0.32219  1.0000
  N   N60       1.0  0.24453  0.32846  0.22816  1.0000
  C   C237      1.0  0.24436  0.38416  0.23160  1.0000
  N   N61       1.0  0.24428  0.41158  0.25482  1.0000
  C   C238      1.0  0.24445  0.40980  0.20672  1.0000
  C   C239      1.0  0.24468  0.37126  0.18747  1.0000
  C   C240      1.0  0.24476  0.32153  0.20032  1.0000
  C   C241      1.0  0.24491  0.38390  0.34952  1.0000
  C   C242      1.0  0.24488  0.43874  0.35667  1.0000
  C   C243      1.0  0.24482  0.47898  0.33651  1.0000
  C   C244      1.0  0.24468  0.46458  0.30910  1.0000
  C   C245      1.0  0.24476  0.38366  0.16013  1.0000
  C   C246      1.0  0.24458  0.43848  0.15294  1.0000
  C   C247      1.0  0.24439  0.47878  0.17307  1.0000
  C   C248      1.0  0.24434  0.46446  0.20049  1.0000
  N   N62       1.0  0.24463  0.22176  0.22819  1.0000
  C   C249      1.0  0.24486  0.22865  0.20034  1.0000
  N   N63       1.0  0.24501  0.27507  0.18663  1.0000
  C   C250      1.0  0.24487  0.17890  0.18751  1.0000
  C   C251      1.0  0.24464  0.14038  0.20678  1.0000
  C   C252      1.0  0.24447  0.16607  0.23165  1.0000
  C   C253      1.0  0.24467  0.08571  0.20056  1.0000
  C   C254      1.0  0.24491  0.07136  0.17315  1.0000
  C   C255      1.0  0.24504  0.11163  0.15300  1.0000
  C   C256      1.0  0.24503  0.16646  0.16018  1.0000
  N   N64       1.0  0.24423  0.13870  0.25488  1.0000
  H   H57       1.0  0.24427  0.05905  0.29539  1.0000
  O   O57       1.0  0.24448  0.02553  0.34285  1.0000
  O   O58       1.0  0.24473  0.09932  0.37972  1.0000
  H   H58       1.0  0.24483  0.19422  0.36293  1.0000
  H   H59       1.0  0.24497  0.35630  0.36290  1.0000
  O   O59       1.0  0.24488  0.45123  0.37963  1.0000
  O   O60       1.0  0.24488  0.52493  0.34271  1.0000
  H   H60       1.0  0.24462  0.49128  0.29528  1.0000
  H   H61       1.0  0.24490  0.35603  0.14677  1.0000
  O   O61       1.0  0.24457  0.45090  0.12997  1.0000
  O   O62       1.0  0.24427  0.52470  0.16683  1.0000
  H   H62       1.0  0.24422  0.49122  0.21429  1.0000
  H   H63       1.0  0.24456  0.05898  0.21438  1.0000
  O   O63       1.0  0.24501  0.02542  0.16692  1.0000
  O   O64       1.0  0.24516  0.09917  0.13004  1.0000
  H   H64       1.0  0.24515  0.19408  0.14681  1.0000
  Ni  Ni8       1.0  0.24449  0.27513  0.25485  1.0000
  C   C257      1.0  0.75628  0.08572  0.30913  1.0000
  C   C258      1.0  0.75641  0.07134  0.33654  1.0000
  C   C259      1.0  0.75658  0.11161  0.35669  1.0000
  C   C260      1.0  0.75665  0.16645  0.34952  1.0000
  C   C261      1.0  0.75653  0.17891  0.32219  1.0000
  C   C262      1.0  0.75633  0.14039  0.30292  1.0000
  C   C263      1.0  0.75626  0.16608  0.27805  1.0000
  N   N65       1.0  0.75641  0.22176  0.28152  1.0000
  C   C264      1.0  0.75658  0.22866  0.30936  1.0000
  N   N66       1.0  0.75681  0.27510  0.32307  1.0000
  C   C265      1.0  0.75676  0.32156  0.30938  1.0000
  N   N67       1.0  0.75659  0.32848  0.28153  1.0000
  C   C266      1.0  0.75650  0.38417  0.27808  1.0000
  C   C267      1.0  0.75665  0.40983  0.30295  1.0000
  C   C268      1.0  0.75680  0.37131  0.32222  1.0000
  N   N68       1.0  0.75648  0.32850  0.22818  1.0000
  C   C269      1.0  0.75632  0.38420  0.23163  1.0000
  N   N69       1.0  0.75624  0.41158  0.25486  1.0000
  C   C270      1.0  0.75641  0.40987  0.20676  1.0000
  C   C271      1.0  0.75663  0.37136  0.18750  1.0000
  C   C272      1.0  0.75670  0.32161  0.20033  1.0000
  C   C273      1.0  0.75688  0.38376  0.34955  1.0000
  C   C274      1.0  0.75686  0.43859  0.35672  1.0000
  C   C275      1.0  0.75680  0.47886  0.33658  1.0000
  C   C276      1.0  0.75667  0.46450  0.30917  1.0000
  C   C277      1.0  0.75671  0.38380  0.16016  1.0000
  C   C278      1.0  0.75654  0.43862  0.15299  1.0000
  C   C279      1.0  0.75636  0.47890  0.17314  1.0000
  C   C280      1.0  0.75630  0.46454  0.20055  1.0000
  N   N70       1.0  0.75656  0.22180  0.22816  1.0000
  C   C281      1.0  0.75678  0.22873  0.20032  1.0000
  N   N71       1.0  0.75694  0.27517  0.18663  1.0000
  C   C282      1.0  0.75678  0.17900  0.18747  1.0000
  C   C283      1.0  0.75655  0.14045  0.20672  1.0000
  C   C284      1.0  0.75639  0.16611  0.23161  1.0000
  C   C285      1.0  0.75657  0.08579  0.20049  1.0000
  C   C286      1.0  0.75680  0.07148  0.17307  1.0000
  C   C287      1.0  0.75694  0.11178  0.15294  1.0000
  C   C288      1.0  0.75694  0.16660  0.16013  1.0000
  N   N72       1.0  0.75614  0.13871  0.25482  1.0000
  H   H65       1.0  0.75617  0.05900  0.29531  1.0000
  O   O65       1.0  0.75638  0.02541  0.34275  1.0000
  O   O66       1.0  0.75665  0.09914  0.37965  1.0000
  H   H66       1.0  0.75677  0.19407  0.36289  1.0000
  H   H67       1.0  0.75694  0.35615  0.36292  1.0000
  O   O67       1.0  0.75687  0.45106  0.37969  1.0000
  O   O68       1.0  0.75688  0.52480  0.34280  1.0000
  H   H68       1.0  0.75661  0.49123  0.29535  1.0000
  H   H69       1.0  0.75684  0.35619  0.14679  1.0000
  O   O69       1.0  0.75652  0.45108  0.13003  1.0000
  O   O70       1.0  0.75625  0.52483  0.16692  1.0000
  H   H70       1.0  0.75619  0.49128  0.21436  1.0000
  H   H71       1.0  0.75645  0.05904  0.21429  1.0000
  O   O71       1.0  0.75689  0.02555  0.16683  1.0000
  O   O72       1.0  0.75705  0.09935  0.12997  1.0000
  H   H72       1.0  0.75706  0.19424  0.14678  1.0000
  Ni  Ni9       1.0  0.75643  0.27513  0.25485  1.0000
  C   C289      1.0  0.74438  0.58575  0.80919  1.0000
  C   C290      1.0  0.74451  0.57141  0.83661  1.0000
  C   C291      1.0  0.74467  0.61170  0.85675  1.0000
  C   C292      1.0  0.74473  0.66653  0.84956  1.0000
  C   C293      1.0  0.74461  0.67895  0.82223  1.0000
  C   C294      1.0  0.74441  0.64042  0.80297  1.0000
  C   C295      1.0  0.74434  0.66607  0.77809  1.0000
  N   N73       1.0  0.74448  0.72176  0.78154  1.0000
  C   C296      1.0  0.74465  0.72869  0.80938  1.0000
  N   N74       1.0  0.74487  0.77515  0.82307  1.0000
  C   C297      1.0  0.74481  0.82159  0.80937  1.0000
  N   N75       1.0  0.74464  0.82847  0.78152  1.0000
  C   C298      1.0  0.74454  0.88416  0.77805  1.0000
  C   C299      1.0  0.74469  0.90985  0.80292  1.0000
  C   C300      1.0  0.74484  0.87136  0.82219  1.0000
  N   N76       1.0  0.74453  0.82843  0.72817  1.0000
  C   C301      1.0  0.74436  0.88413  0.73161  1.0000
  N   N77       1.0  0.74428  0.91154  0.75482  1.0000
  C   C302      1.0  0.74444  0.90977  0.70673  1.0000
  C   C303      1.0  0.74466  0.87123  0.68747  1.0000
  C   C304      1.0  0.74474  0.82150  0.70032  1.0000
  C   C305      1.0  0.74492  0.88384  0.84952  1.0000
  C   C306      1.0  0.74489  0.93869  0.85668  1.0000
  C   C307      1.0  0.74483  0.97893  0.83652  1.0000
  C   C308      1.0  0.74469  0.96453  0.80911  1.0000
  C   C309      1.0  0.74474  0.88364  0.66014  1.0000
  C   C310      1.0  0.74457  0.93846  0.65295  1.0000
  C   C311      1.0  0.74438  0.97875  0.67308  1.0000
  C   C312      1.0  0.74433  0.96444  0.70050  1.0000
  N   N78       1.0  0.74462  0.72173  0.72819  1.0000
  C   C313      1.0  0.74485  0.72862  0.70034  1.0000
  N   N79       1.0  0.74500  0.77505  0.68663  1.0000
  C   C314      1.0  0.74485  0.67887  0.68751  1.0000
  C   C315      1.0  0.74463  0.64036  0.70677  1.0000
  C   C316      1.0  0.74446  0.66604  0.73165  1.0000
  C   C317      1.0  0.74465  0.58569  0.70056  1.0000
  C   C318      1.0  0.74488  0.57133  0.67314  1.0000
  C   C319      1.0  0.74502  0.61161  0.65300  1.0000
  C   C320      1.0  0.74501  0.66644  0.66017  1.0000
  N   N80       1.0  0.74422  0.63867  0.75487  1.0000
  H   H73       1.0  0.74427  0.55901  0.79538  1.0000
  O   O73       1.0  0.74449  0.52548  0.84284  1.0000
  O   O74       1.0  0.74474  0.59926  0.87971  1.0000
  H   H74       1.0  0.74485  0.69416  0.86292  1.0000
  H   H75       1.0  0.74499  0.85625  0.86290  1.0000
  O   O75       1.0  0.74491  0.95118  0.87964  1.0000
  O   O76       1.0  0.74490  0.02488  0.84273  1.0000
  H   H76       1.0  0.74463  0.99124  0.79529  1.0000
  H   H77       1.0  0.74488  0.85601  0.64678  1.0000
  O   O77       1.0  0.74454  0.95088  0.62998  1.0000
  O   O78       1.0  0.74426  0.02468  0.66684  1.0000
  H   H78       1.0  0.74421  0.99119  0.71430  1.0000
  H   H79       1.0  0.74454  0.55895  0.71437  1.0000
  O   O79       1.0  0.74498  0.52540  0.66692  1.0000
  O   O80       1.0  0.74513  0.59916  0.63003  1.0000
  H   H80       1.0  0.74512  0.69406  0.64681  1.0000
  Ni  Ni10      1.0  0.74448  0.77509  0.75485  1.0000
  C   C321      1.0  0.31136  0.51858  0.95049  1.0000
  C   C322      1.0  0.29702  0.51869  0.92307  1.0000
  C   C323      1.0  0.33732  0.51888  0.90294  1.0000
  C   C324      1.0  0.39215  0.51899  0.91012  1.0000
  C   C325      1.0  0.40457  0.51889  0.93746  1.0000
  C   C326      1.0  0.36603  0.51866  0.95672  1.0000
  C   C327      1.0  0.39168  0.51862  0.98159  1.0000
  N   N81       1.0  0.44737  0.51881  0.97815  1.0000
  C   C328      1.0  0.45431  0.51898  0.95030  1.0000
  N   N82       1.0  0.50076  0.51923  0.93661  1.0000
  C   C329      1.0  0.54720  0.51922  0.95032  1.0000
  N   N83       1.0  0.55409  0.51906  0.97817  1.0000
  C   C330      1.0  0.60977  0.51900  0.98164  1.0000
  C   C331      1.0  0.63547  0.51917  0.95677  1.0000
  C   C332      1.0  0.59697  0.51928  0.93750  1.0000
  N   N84       1.0  0.55404  0.51896  0.03152  1.0000
  C   C333      1.0  0.60974  0.51884  0.02808  1.0000
  N   N85       1.0  0.63715  0.51877  0.00487  1.0000
  C   C334      1.0  0.63539  0.51895  0.05296  1.0000
  C   C335      1.0  0.59685  0.51914  0.07222  1.0000
  C   C336      1.0  0.54711  0.51918  0.05937  1.0000
  C   C337      1.0  0.60946  0.51937  0.91017  1.0000
  C   C338      1.0  0.66430  0.51938  0.90302  1.0000
  C   C339      1.0  0.70454  0.51936  0.92317  1.0000
  C   C340      1.0  0.69014  0.51922  0.95058  1.0000
  C   C341      1.0  0.60926  0.51924  0.09955  1.0000
  C   C342      1.0  0.66407  0.51911  0.10674  1.0000
  C   C343      1.0  0.70437  0.51895  0.08661  1.0000
  C   C344      1.0  0.69005  0.51888  0.05920  1.0000
  N   N86       1.0  0.44734  0.51896  0.03150  1.0000
  C   C345      1.0  0.45423  0.51920  0.05935  1.0000
  N   N87       1.0  0.50066  0.51939  0.07305  1.0000
  C   C346      1.0  0.40448  0.51917  0.07218  1.0000
  C   C347      1.0  0.36597  0.51891  0.05291  1.0000
  C   C348      1.0  0.39165  0.51876  0.02804  1.0000
  C   C349      1.0  0.31130  0.51889  0.05913  1.0000
  C   C350      1.0  0.29695  0.51911  0.08654  1.0000
  C   C351      1.0  0.33722  0.51928  0.10669  1.0000
  C   C352      1.0  0.39205  0.51932  0.09951  1.0000
  N   N88       1.0  0.36428  0.51849  0.00481  1.0000
  H   H81       1.0  0.28462  0.51846  0.96430  1.0000
  O   O81       1.0  0.25109  0.51863  0.91684  1.0000
  O   O82       1.0  0.32487  0.51894  0.87997  1.0000
  H   H82       1.0  0.41978  0.51913  0.89676  1.0000
  H   H83       1.0  0.58186  0.51940  0.89679  1.0000
  O   O83       1.0  0.67679  0.51940  0.88005  1.0000
  O   O84       1.0  0.75049  0.51947  0.91697  1.0000
  H   H84       1.0  0.71685  0.51918  0.96440  1.0000
  H   H85       1.0  0.58162  0.51936  0.11291  1.0000
  O   O85       1.0  0.67650  0.51910  0.12971  1.0000
  O   O86       1.0  0.75029  0.51887  0.09285  1.0000
  H   H86       1.0  0.71680  0.51878  0.04539  1.0000
  H   H87       1.0  0.28457  0.51875  0.04532  1.0000
  O   O87       1.0  0.25101  0.51918  0.09277  1.0000
  O   O88       1.0  0.32477  0.51940  0.12965  1.0000
  H   H88       1.0  0.41967  0.51946  0.11288  1.0000
  Ni  Ni11      1.0  0.50071  0.51886  0.00483  1.0000
  C   C353      1.0  0.81135  0.53152  0.55918  1.0000
  C   C354      1.0  0.79701  0.53139  0.58660  1.0000
  C   C355      1.0  0.83730  0.53122  0.60673  1.0000
  C   C356      1.0  0.89213  0.53116  0.59955  1.0000
  C   C357      1.0  0.90456  0.53128  0.57221  1.0000
  C   C358      1.0  0.86602  0.53149  0.55296  1.0000
  C   C359      1.0  0.89167  0.53156  0.52808  1.0000
  N   N89       1.0  0.94737  0.53141  0.53153  1.0000
  C   C360      1.0  0.95430  0.53124  0.55937  1.0000
  N   N90       1.0  0.00010  0.53102  0.57306  1.0000
  C   C361      1.0  0.04719  0.53107  0.55936  1.0000
  N   N91       1.0  0.05408  0.53125  0.53151  1.0000
  C   C362      1.0  0.10977  0.53135  0.52804  1.0000
  C   C363      1.0  0.13546  0.53119  0.55290  1.0000
  C   C364      1.0  0.09696  0.53104  0.57218  1.0000
  N   N92       1.0  0.05404  0.53137  0.47815  1.0000
  C   C365      1.0  0.10974  0.53153  0.48159  1.0000
  N   N93       1.0  0.13715  0.53161  0.50481  1.0000
  C   C366      1.0  0.13539  0.53145  0.45671  1.0000
  C   C367      1.0  0.09685  0.53124  0.43746  1.0000
  C   C368      1.0  0.04711  0.53116  0.45031  1.0000
  C   C369      1.0  0.10945  0.53095  0.59951  1.0000
  C   C370      1.0  0.16429  0.53098  0.60666  1.0000
  C   C371      1.0  0.20453  0.53104  0.58651  1.0000
  C   C372      1.0  0.19013  0.53118  0.55910  1.0000
  C   C373      1.0  0.10926  0.53116  0.41012  1.0000
  C   C374      1.0  0.16407  0.53134  0.40294  1.0000
  C   C375      1.0  0.20437  0.53151  0.42307  1.0000
  C   C376      1.0  0.19005  0.53156  0.45048  1.0000
  N   N94       1.0  0.94734  0.53128  0.47817  1.0000
  C   C377      1.0  0.95423  0.53106  0.45033  1.0000
  N   N95       1.0  0.00010  0.53091  0.43662  1.0000
  C   C378      1.0  0.90448  0.53106  0.43750  1.0000
  C   C379      1.0  0.86597  0.53128  0.45676  1.0000
  C   C380      1.0  0.89165  0.53144  0.48164  1.0000
  C   C381      1.0  0.81130  0.53126  0.45055  1.0000
  C   C382      1.0  0.79695  0.53104  0.42313  1.0000
  C   C383      1.0  0.83723  0.53091  0.40299  1.0000
  C   C384      1.0  0.89205  0.53091  0.41016  1.0000
  N   N96       1.0  0.86427  0.53168  0.50486  1.0000
  H   H89       1.0  0.78461  0.53163  0.54537  1.0000
  O   O89       1.0  0.75108  0.53141  0.59283  1.0000
  O   O90       1.0  0.82486  0.53114  0.62970  1.0000
  H   H90       1.0  0.91976  0.53104  0.61291  1.0000
  H   H91       1.0  0.08185  0.53089  0.61289  1.0000
  O   O91       1.0  0.17678  0.53096  0.62962  1.0000
  O   O92       1.0  0.25048  0.53097  0.59271  1.0000
  H   H92       1.0  0.21685  0.53125  0.54528  1.0000
  H   H93       1.0  0.08162  0.53102  0.39676  1.0000
  O   O93       1.0  0.17650  0.53136  0.37997  1.0000
  O   O94       1.0  0.25029  0.53163  0.41683  1.0000
  H   H94       1.0  0.21680  0.53168  0.46428  1.0000
  H   H95       1.0  0.78456  0.53137  0.46436  1.0000
  O   O95       1.0  0.75101  0.53094  0.41691  1.0000
  O   O96       1.0  0.82477  0.53079  0.38002  1.0000
  H   H96       1.0  0.91968  0.53079  0.39680  1.0000
  Ni  Ni12      1.0  0.00010  0.53141  0.50484  1.0000
