data_image0
_chemical_formula_structural       Fe16C7NCNCNC3NCNC11NCNC7NHO2H2O2H2O2H2O2HNiC7NCNCNC3NCNC11NCNC7NHO2H2O2H2O2H2O2HNiC7NCNCNC3NCNC11NCNC7NHO2H2O2H2O2H2O2HNiC7NCNCNC3NCNC11NCNC7NHO2H2O2H2O2H2O2HNiC7NCNCNC3NCNC11NCNC7NHO2H2O2H2O2H2O2HNiC7NCNCNC3NCNC11NCNC7NHO2H2O2H2O2H2O2HNiC7NCNCNC3NCNC11NCNC7NHO2H2O2H2O2H2O2HNiC7NCNCNC3NCNC11NCNC7NHO2H2O2H2O2H2O2HNiC7NCNCNC3NCNC11NCNC7NHO2H2O2H2O2H2O2HNiC7NCNCNC3NCNC11NCNC7NHO2H2O2H2O2H2O2HNiC7NCNCNC3NCNC11NCNC7NHO2H2O2H2O2H2O2HNiC7NCNCNC3NCNC11NCNC7NHO2H2O2H2O2H2O2HNi
_chemical_formula_sum              "Fe16 C384 N96 H96 O96 Ni12"
_cell_length_a       27.3178
_cell_length_b       27.3166
_cell_length_c       54.6351
_cell_angle_alpha    89.9997
_cell_angle_beta     90.0001
_cell_angle_gamma    89.9994

_space_group_name_H-M_alt    "P 1"
_space_group_IT_number       1

loop_
  _space_group_symop_operation_xyz
  'x, y, z'

loop_
  _atom_site_type_symbol
  _atom_site_label
  _atom_site_symmetry_multiplicity
  _atom_site_fract_x
  _atom_site_fract_y
  _atom_site_fract_z
  _atom_site_occupancy
  Fe  Fe1       1.0  0.25048  0.02675  0.13260  1.0000
  Fe  Fe2       1.0  0.25045  0.02645  0.38263  1.0000
  Fe  Fe3       1.0  0.25082  0.02650  0.63261  1.0000
  Fe  Fe4       1.0  0.25084  0.02685  0.88258  1.0000
  Fe  Fe5       1.0  0.75078  0.02650  0.88276  1.0000
  Fe  Fe6       1.0  0.75077  0.02682  0.63279  1.0000
  Fe  Fe7       1.0  0.75049  0.02679  0.38279  1.0000
  Fe  Fe8       1.0  0.75048  0.02641  0.13276  1.0000
  Fe  Fe9       1.0  0.75048  0.52682  0.63260  1.0000
  Fe  Fe10      1.0  0.75049  0.52652  0.88264  1.0000
  Fe  Fe11      1.0  0.75082  0.52643  0.13261  1.0000
  Fe  Fe12      1.0  0.75080  0.52677  0.38259  1.0000
  Fe  Fe13      1.0  0.25080  0.52646  0.38276  1.0000
  Fe  Fe14      1.0  0.25078  0.52675  0.13278  1.0000
  Fe  Fe15      1.0  0.25048  0.52683  0.88278  1.0000
  Fe  Fe16      1.0  0.25047  0.52649  0.63275  1.0000
  C   C1        1.0  0.18995  0.88533  0.13177  1.0000
  C   C2        1.0  0.20428  0.94016  0.13171  1.0000
  C   C3        1.0  0.16398  0.98042  0.13162  1.0000
  C   C4        1.0  0.10916  0.96604  0.13157  1.0000
  C   C5        1.0  0.09675  0.91136  0.13163  1.0000
  C   C6        1.0  0.13529  0.87286  0.13174  1.0000
  C   C7        1.0  0.10966  0.82311  0.13177  1.0000
  N   N1        1.0  0.05397  0.82999  0.13169  1.0000
  C   C8        1.0  0.04702  0.88567  0.13160  1.0000
  N   N2        1.0  0.00010  0.91303  0.13148  1.0000
  C   C9        1.0  0.95413  0.88562  0.13150  1.0000
  N   N3        1.0  0.94726  0.82992  0.13158  1.0000
  C   C10       1.0  0.89158  0.82297  0.13162  1.0000
  C   C11       1.0  0.86588  0.87269  0.13154  1.0000
  C   C12       1.0  0.90436  0.91124  0.13147  1.0000
  N   N4        1.0  0.94733  0.72322  0.13164  1.0000
  C   C13       1.0  0.89164  0.73008  0.13171  1.0000
  N   N5        1.0  0.86422  0.77651  0.13174  1.0000
  C   C14       1.0  0.86601  0.68032  0.13166  1.0000
  C   C15       1.0  0.90455  0.64183  0.13156  1.0000
  C   C16       1.0  0.95428  0.66753  0.13153  1.0000
  C   C17       1.0  0.89186  0.96589  0.13143  1.0000
  C   C18       1.0  0.83702  0.98018  0.13143  1.0000
  C   C19       1.0  0.79679  0.93987  0.13145  1.0000
  C   C20       1.0  0.81120  0.88506  0.13152  1.0000
  C   C21       1.0  0.89216  0.58715  0.13152  1.0000
  C   C22       1.0  0.83735  0.57276  0.13159  1.0000
  C   C23       1.0  0.79705  0.61301  0.13167  1.0000
  C   C24       1.0  0.81135  0.66784  0.13170  1.0000
  N   N6        1.0  0.05403  0.72329  0.13161  1.0000
  C   C25       1.0  0.04715  0.66759  0.13150  1.0000
  N   N7        1.0  0.00010  0.64017  0.13142  1.0000
  C   C26       1.0  0.09690  0.64195  0.13151  1.0000
  C   C27       1.0  0.13540  0.68049  0.13163  1.0000
  C   C28       1.0  0.10971  0.73022  0.13171  1.0000
  C   C29       1.0  0.19007  0.66807  0.13163  1.0000
  C   C30       1.0  0.20444  0.61325  0.13152  1.0000
  C   C31       1.0  0.16417  0.57296  0.13144  1.0000
  C   C32       1.0  0.10934  0.58729  0.13144  1.0000
  N   N8        1.0  0.13707  0.77668  0.13183  1.0000
  H   H1        1.0  0.21670  0.85772  0.13183  1.0000
  O   O1        1.0  0.25020  0.95263  0.13173  1.0000
  O   O2        1.0  0.17641  0.02635  0.13158  1.0000
  H   H2        1.0  0.08152  0.99275  0.13151  1.0000
  H   H3        1.0  0.91945  0.99266  0.13140  1.0000
  O   O3        1.0  0.82452  0.02610  0.13142  1.0000
  O   O4        1.0  0.75085  0.95226  0.13140  1.0000
  H   H4        1.0  0.78450  0.85741  0.13155  1.0000
  H   H5        1.0  0.91980  0.56044  0.13145  1.0000
  O   O5        1.0  0.82494  0.52682  0.13160  1.0000
  O   O6        1.0  0.75113  0.60053  0.13172  1.0000
  H   H6        1.0  0.78460  0.69544  0.13176  1.0000
  H   H7        1.0  0.21679  0.69570  0.13169  1.0000
  O   O7        1.0  0.25037  0.60081  0.13148  1.0000
  O   O8        1.0  0.17664  0.52703  0.13139  1.0000
  H   H8        1.0  0.08173  0.56055  0.13137  1.0000
  Ni  Ni1       1.0  0.00010  0.77660  0.13167  1.0000
  C   C33       1.0  0.68995  0.88535  0.38180  1.0000
  C   C34       1.0  0.70427  0.94019  0.38174  1.0000
  C   C35       1.0  0.66397  0.98044  0.38166  1.0000
  C   C36       1.0  0.60915  0.96606  0.38161  1.0000
  C   C37       1.0  0.59675  0.91139  0.38166  1.0000
  C   C38       1.0  0.63529  0.87289  0.38177  1.0000
  C   C39       1.0  0.60965  0.82314  0.38180  1.0000
  N   N9        1.0  0.55396  0.83001  0.38171  1.0000
  C   C40       1.0  0.54702  0.88570  0.38163  1.0000
  N   N10       1.0  0.50056  0.91306  0.38152  1.0000
  C   C41       1.0  0.45413  0.88564  0.38153  1.0000
  N   N11       1.0  0.44726  0.82994  0.38161  1.0000
  C   C42       1.0  0.39158  0.82299  0.38165  1.0000
  C   C43       1.0  0.36587  0.87271  0.38157  1.0000
  C   C44       1.0  0.40436  0.91127  0.38151  1.0000
  N   N12       1.0  0.44733  0.72324  0.38166  1.0000
  C   C45       1.0  0.39163  0.73011  0.38173  1.0000
  N   N13       1.0  0.36421  0.77653  0.38177  1.0000
  C   C46       1.0  0.36600  0.68035  0.38168  1.0000
  C   C47       1.0  0.40455  0.64185  0.38157  1.0000
  C   C48       1.0  0.45427  0.66756  0.38155  1.0000
  C   C49       1.0  0.39186  0.96592  0.38147  1.0000
  C   C50       1.0  0.33702  0.98021  0.38148  1.0000
  C   C51       1.0  0.29679  0.93989  0.38150  1.0000
  C   C52       1.0  0.31120  0.88509  0.38156  1.0000
  C   C53       1.0  0.39216  0.58718  0.38153  1.0000
  C   C54       1.0  0.33735  0.57279  0.38160  1.0000
  C   C55       1.0  0.29705  0.61304  0.38169  1.0000
  C   C56       1.0  0.31135  0.66787  0.38173  1.0000
  N   N14       1.0  0.55402  0.72331  0.38163  1.0000
  C   C57       1.0  0.54715  0.66762  0.38151  1.0000
  N   N15       1.0  0.50073  0.64020  0.38143  1.0000
  C   C58       1.0  0.59690  0.64198  0.38152  1.0000
  C   C59       1.0  0.63540  0.68052  0.38164  1.0000
  C   C60       1.0  0.60970  0.73025  0.38172  1.0000
  C   C61       1.0  0.69007  0.66810  0.38164  1.0000
  C   C62       1.0  0.70443  0.61328  0.38152  1.0000
  C   C63       1.0  0.66417  0.57298  0.38144  1.0000
  C   C64       1.0  0.60934  0.58732  0.38144  1.0000
  N   N16       1.0  0.63706  0.77671  0.38185  1.0000
  H   H9        1.0  0.71669  0.85775  0.38185  1.0000
  O   O9        1.0  0.75020  0.95266  0.38176  1.0000
  O   O10       1.0  0.67640  0.02638  0.38163  1.0000
  H   H10       1.0  0.58152  0.99278  0.38155  1.0000
  H   H11       1.0  0.41944  0.99269  0.38145  1.0000
  O   O11       1.0  0.32451  0.02613  0.38147  1.0000
  O   O12       1.0  0.25084  0.95229  0.38146  1.0000
  H   H12       1.0  0.28450  0.85744  0.38159  1.0000
  H   H13       1.0  0.41979  0.56047  0.38146  1.0000
  O   O13       1.0  0.32494  0.52685  0.38161  1.0000
  O   O14       1.0  0.25113  0.60055  0.38174  1.0000
  H   H14       1.0  0.28459  0.69546  0.38178  1.0000
  H   H15       1.0  0.71679  0.69573  0.38170  1.0000
  O   O15       1.0  0.75037  0.60084  0.38148  1.0000
  O   O16       1.0  0.67664  0.52706  0.38138  1.0000
  H   H16       1.0  0.58173  0.56058  0.38137  1.0000
  Ni  Ni2       1.0  0.50065  0.77663  0.38170  1.0000
  C   C65       1.0  0.68995  0.38540  0.63177  1.0000
  C   C66       1.0  0.70427  0.44024  0.63171  1.0000
  C   C67       1.0  0.66397  0.48049  0.63162  1.0000
  C   C68       1.0  0.60915  0.46611  0.63158  1.0000
  C   C69       1.0  0.59674  0.41144  0.63163  1.0000
  C   C70       1.0  0.63529  0.37294  0.63174  1.0000
  C   C71       1.0  0.60965  0.32319  0.63177  1.0000
  N   N17       1.0  0.55396  0.33006  0.63169  1.0000
  C   C72       1.0  0.54701  0.38575  0.63160  1.0000
  N   N18       1.0  0.50055  0.41311  0.63148  1.0000
  C   C73       1.0  0.45413  0.38569  0.63150  1.0000
  N   N19       1.0  0.44726  0.33000  0.63158  1.0000
  C   C74       1.0  0.39158  0.32304  0.63162  1.0000
  C   C75       1.0  0.36587  0.37276  0.63154  1.0000
  C   C76       1.0  0.40436  0.41132  0.63147  1.0000
  N   N20       1.0  0.44733  0.22329  0.63164  1.0000
  C   C77       1.0  0.39163  0.23016  0.63171  1.0000
  N   N21       1.0  0.36421  0.27658  0.63174  1.0000
  C   C78       1.0  0.36600  0.18040  0.63166  1.0000
  C   C79       1.0  0.40455  0.14190  0.63156  1.0000
  C   C80       1.0  0.45427  0.16761  0.63153  1.0000
  C   C81       1.0  0.39186  0.46597  0.63143  1.0000
  C   C82       1.0  0.33702  0.48026  0.63143  1.0000
  C   C83       1.0  0.29679  0.43994  0.63145  1.0000
  C   C84       1.0  0.31120  0.38514  0.63152  1.0000
  C   C85       1.0  0.39215  0.08723  0.63152  1.0000
  C   C86       1.0  0.33735  0.07284  0.63160  1.0000
  C   C87       1.0  0.29704  0.11309  0.63168  1.0000
  C   C88       1.0  0.31135  0.16792  0.63171  1.0000
  N   N22       1.0  0.55402  0.22336  0.63162  1.0000
  C   C89       1.0  0.54714  0.16767  0.63151  1.0000
  N   N23       1.0  0.50073  0.14025  0.63142  1.0000
  C   C90       1.0  0.59689  0.14203  0.63152  1.0000
  C   C91       1.0  0.63540  0.18057  0.63164  1.0000
  C   C92       1.0  0.60970  0.23030  0.63171  1.0000
  C   C93       1.0  0.69006  0.16815  0.63164  1.0000
  C   C94       1.0  0.70443  0.11332  0.63153  1.0000
  C   C95       1.0  0.66416  0.07303  0.63145  1.0000
  C   C96       1.0  0.60934  0.08737  0.63144  1.0000
  N   N24       1.0  0.63706  0.27676  0.63184  1.0000
  H   H17       1.0  0.71669  0.35780  0.63183  1.0000
  O   O17       1.0  0.75020  0.45271  0.63173  1.0000
  O   O18       1.0  0.67640  0.52643  0.63158  1.0000
  H   H18       1.0  0.58151  0.49283  0.63151  1.0000
  H   H19       1.0  0.41944  0.49274  0.63140  1.0000
  O   O19       1.0  0.32451  0.52618  0.63142  1.0000
  O   O20       1.0  0.25084  0.45234  0.63140  1.0000
  H   H20       1.0  0.28450  0.35749  0.63155  1.0000
  H   H21       1.0  0.41979  0.06052  0.63146  1.0000
  O   O21       1.0  0.32493  0.02690  0.63161  1.0000
  O   O22       1.0  0.25112  0.10060  0.63173  1.0000
  H   H22       1.0  0.28459  0.19552  0.63176  1.0000
  H   H23       1.0  0.71679  0.19578  0.63170  1.0000
  O   O23       1.0  0.75036  0.10089  0.63149  1.0000
  O   O24       1.0  0.67663  0.02710  0.63140  1.0000
  H   H24       1.0  0.58173  0.06063  0.63138  1.0000
  Ni  Ni3       1.0  0.50065  0.27668  0.63167  1.0000
  C   C97       1.0  0.81133  0.16793  0.88179  1.0000
  C   C98       1.0  0.79701  0.11309  0.88173  1.0000
  C   C99       1.0  0.83731  0.07284  0.88164  1.0000
  C   C100      1.0  0.89213  0.08722  0.88160  1.0000
  C   C101      1.0  0.90453  0.14189  0.88165  1.0000
  C   C102      1.0  0.86599  0.18039  0.88176  1.0000
  C   C103      1.0  0.89163  0.23015  0.88180  1.0000
  N   N25       1.0  0.94732  0.22327  0.88171  1.0000
  C   C104      1.0  0.95426  0.16758  0.88162  1.0000
  N   N26       1.0  0.00010  0.14022  0.88150  1.0000
  C   C105      1.0  0.04715  0.16764  0.88152  1.0000
  N   N27       1.0  0.05402  0.22334  0.88160  1.0000
  C   C106      1.0  0.10970  0.23029  0.88164  1.0000
  C   C107      1.0  0.13541  0.18057  0.88156  1.0000
  C   C108      1.0  0.09692  0.14201  0.88149  1.0000
  N   N28       1.0  0.05395  0.33004  0.88166  1.0000
  C   C109      1.0  0.10965  0.32317  0.88173  1.0000
  N   N29       1.0  0.13707  0.27675  0.88177  1.0000
  C   C110      1.0  0.13528  0.37294  0.88169  1.0000
  C   C111      1.0  0.09673  0.41143  0.88159  1.0000
  C   C112      1.0  0.04701  0.38572  0.88156  1.0000
  C   C113      1.0  0.10942  0.08736  0.88144  1.0000
  C   C114      1.0  0.16426  0.07307  0.88144  1.0000
  C   C115      1.0  0.20449  0.11339  0.88147  1.0000
  C   C116      1.0  0.19008  0.16820  0.88154  1.0000
  C   C117      1.0  0.10912  0.46610  0.88155  1.0000
  C   C118      1.0  0.16393  0.48049  0.88162  1.0000
  C   C119      1.0  0.20423  0.44025  0.88170  1.0000
  C   C120      1.0  0.18993  0.38541  0.88173  1.0000
  N   N30       1.0  0.94726  0.32997  0.88164  1.0000
  C   C121      1.0  0.95413  0.38566  0.88153  1.0000
  N   N31       1.0  0.00010  0.41308  0.88145  1.0000
  C   C122      1.0  0.90438  0.41130  0.88154  1.0000
  C   C123      1.0  0.86588  0.37277  0.88166  1.0000
  C   C124      1.0  0.89158  0.32303  0.88174  1.0000
  C   C125      1.0  0.81121  0.38518  0.88166  1.0000
  C   C126      1.0  0.79685  0.44001  0.88155  1.0000
  C   C127      1.0  0.83711  0.48030  0.88148  1.0000
  C   C128      1.0  0.89194  0.46596  0.88147  1.0000
  N   N32       1.0  0.86422  0.27657  0.88186  1.0000
  H   H25       1.0  0.78459  0.19554  0.88186  1.0000
  O   O25       1.0  0.75108  0.10062  0.88175  1.0000
  O   O26       1.0  0.82488  0.02690  0.88160  1.0000
  H   H26       1.0  0.91976  0.06050  0.88153  1.0000
  H   H27       1.0  0.08184  0.06059  0.88142  1.0000
  O   O27       1.0  0.17677  0.02715  0.88143  1.0000
  O   O28       1.0  0.25044  0.10099  0.88142  1.0000
  H   H28       1.0  0.21678  0.19584  0.88157  1.0000
  H   H29       1.0  0.08149  0.49281  0.88148  1.0000
  O   O29       1.0  0.17635  0.52643  0.88163  1.0000
  O   O30       1.0  0.25016  0.45273  0.88175  1.0000
  H   H30       1.0  0.21669  0.35782  0.88178  1.0000
  H   H31       1.0  0.78449  0.35756  0.88173  1.0000
  O   O31       1.0  0.75091  0.45244  0.88152  1.0000
  O   O32       1.0  0.82465  0.52623  0.88143  1.0000
  H   H32       1.0  0.91955  0.49270  0.88140  1.0000
  Ni  Ni4       1.0  0.00010  0.27665  0.88170  1.0000
  C   C129      1.0  0.81132  0.02498  0.56208  1.0000
  C   C130      1.0  0.79699  0.02487  0.58949  1.0000
  C   C131      1.0  0.83729  0.02468  0.60962  1.0000
  C   C132      1.0  0.89211  0.02455  0.60243  1.0000
  C   C133      1.0  0.90452  0.02464  0.57509  1.0000
  C   C134      1.0  0.86598  0.02488  0.55585  1.0000
  C   C135      1.0  0.89161  0.02492  0.53097  1.0000
  N   N33       1.0  0.94730  0.02472  0.53441  1.0000
  C   C136      1.0  0.95425  0.02454  0.56225  1.0000
  N   N34       1.0  0.00010  0.02428  0.57593  1.0000
  C   C137      1.0  0.04714  0.02428  0.56222  1.0000
  N   N35       1.0  0.05400  0.02444  0.53437  1.0000
  C   C138      1.0  0.10969  0.02448  0.53090  1.0000
  C   C139      1.0  0.13539  0.02430  0.55575  1.0000
  C   C140      1.0  0.09691  0.02420  0.57503  1.0000
  N   N36       1.0  0.05394  0.02454  0.48102  1.0000
  C   C141      1.0  0.10963  0.02464  0.48446  1.0000
  N   N37       1.0  0.13705  0.02470  0.50767  1.0000
  C   C142      1.0  0.13526  0.02452  0.45957  1.0000
  C   C143      1.0  0.09672  0.02434  0.44033  1.0000
  C   C144      1.0  0.04699  0.02432  0.45318  1.0000
  C   C145      1.0  0.10941  0.02412  0.60236  1.0000
  C   C146      1.0  0.16425  0.02409  0.60950  1.0000
  C   C147      1.0  0.20448  0.02410  0.58934  1.0000
  C   C148      1.0  0.19007  0.02424  0.56194  1.0000
  C   C149      1.0  0.10911  0.02424  0.41299  1.0000
  C   C150      1.0  0.16392  0.02435  0.40580  1.0000
  C   C151      1.0  0.20422  0.02450  0.42592  1.0000
  C   C152      1.0  0.18992  0.02458  0.45334  1.0000
  N   N38       1.0  0.94724  0.02456  0.48106  1.0000
  C   C153      1.0  0.95412  0.02432  0.45321  1.0000
  N   N39       1.0  0.00010  0.02411  0.43950  1.0000
  C   C154      1.0  0.90437  0.02436  0.44039  1.0000
  C   C155      1.0  0.86587  0.02463  0.45966  1.0000
  C   C156      1.0  0.89156  0.02478  0.48453  1.0000
  C   C157      1.0  0.81120  0.02466  0.45345  1.0000
  C   C158      1.0  0.79683  0.02444  0.42604  1.0000
  C   C159      1.0  0.83710  0.02426  0.40590  1.0000
  C   C160      1.0  0.89192  0.02421  0.41306  1.0000
  N   N40       1.0  0.86420  0.02506  0.50776  1.0000
  H   H33       1.0  0.78457  0.02511  0.54827  1.0000
  O   O33       1.0  0.75107  0.02494  0.59573  1.0000
  O   O34       1.0  0.82486  0.02462  0.63259  1.0000
  H   H34       1.0  0.91975  0.02440  0.61579  1.0000
  H   H35       1.0  0.08182  0.02409  0.61574  1.0000
  O   O35       1.0  0.17675  0.02407  0.63246  1.0000
  O   O36       1.0  0.25042  0.02398  0.59554  1.0000
  H   H36       1.0  0.21677  0.02428  0.54812  1.0000
  H   H37       1.0  0.08147  0.02412  0.39964  1.0000
  O   O37       1.0  0.17633  0.02435  0.38283  1.0000
  O   O38       1.0  0.25014  0.02457  0.41968  1.0000
  H   H38       1.0  0.21667  0.02467  0.46713  1.0000
  H   H39       1.0  0.78448  0.02481  0.46727  1.0000
  O   O39       1.0  0.75090  0.02439  0.41982  1.0000
  O   O40       1.0  0.82463  0.02415  0.38293  1.0000
  H   H40       1.0  0.91954  0.02406  0.39970  1.0000
  Ni  Ni5       1.0  0.00010  0.02465  0.50772  1.0000
  C   C161      1.0  0.25237  0.66791  0.66303  1.0000
  C   C162      1.0  0.25245  0.61308  0.65587  1.0000
  C   C163      1.0  0.25260  0.57282  0.67602  1.0000
  C   C164      1.0  0.25270  0.58720  0.70343  1.0000
  C   C165      1.0  0.25263  0.64188  0.70963  1.0000
  C   C166      1.0  0.25244  0.68037  0.69036  1.0000
  C   C167      1.0  0.25242  0.73013  0.70318  1.0000
  N   N41       1.0  0.25258  0.72326  0.73103  1.0000
  C   C168      1.0  0.25272  0.66757  0.73450  1.0000
  N   N42       1.0  0.25293  0.64021  0.75773  1.0000
  C   C169      1.0  0.25292  0.66763  0.78094  1.0000
  N   N43       1.0  0.25279  0.72333  0.78438  1.0000
  C   C170      1.0  0.25272  0.73028  0.81222  1.0000
  C   C171      1.0  0.25285  0.68056  0.82507  1.0000
  C   C172      1.0  0.25295  0.64200  0.80583  1.0000
  N   N44       1.0  0.25276  0.83003  0.78434  1.0000
  C   C173      1.0  0.25262  0.82316  0.81219  1.0000
  N   N45       1.0  0.25251  0.77674  0.82590  1.0000
  C   C174      1.0  0.25275  0.87293  0.82500  1.0000
  C   C175      1.0  0.25299  0.91142  0.80573  1.0000
  C   C176      1.0  0.25302  0.88571  0.78087  1.0000
  C   C177      1.0  0.25299  0.58735  0.81208  1.0000
  C   C178      1.0  0.25298  0.57306  0.83950  1.0000
  C   C179      1.0  0.25297  0.61338  0.85962  1.0000
  C   C180      1.0  0.25287  0.66819  0.85241  1.0000
  C   C181      1.0  0.25311  0.96609  0.81193  1.0000
  C   C182      1.0  0.25297  0.98049  0.83933  1.0000
  C   C183      1.0  0.25278  0.94024  0.85948  1.0000
  C   C184      1.0  0.25267  0.88541  0.85233  1.0000
  N   N46       1.0  0.25281  0.82996  0.73099  1.0000
  C   C185      1.0  0.25308  0.88565  0.73443  1.0000
  N   N47       1.0  0.25327  0.91307  0.75764  1.0000
  C   C186      1.0  0.25308  0.91129  0.70956  1.0000
  C   C187      1.0  0.25281  0.87275  0.69030  1.0000
  C   C188      1.0  0.25262  0.82302  0.70315  1.0000
  C   C189      1.0  0.25282  0.88517  0.66297  1.0000
  C   C190      1.0  0.25309  0.93999  0.65579  1.0000
  C   C191      1.0  0.25327  0.98028  0.67592  1.0000
  C   C192      1.0  0.25328  0.96595  0.70333  1.0000
  N   N48       1.0  0.25233  0.77656  0.68947  1.0000
  H   H41       1.0  0.25227  0.69552  0.64966  1.0000
  O   O41       1.0  0.25240  0.60060  0.63291  1.0000
  O   O42       1.0  0.25263  0.52688  0.66981  1.0000
  H   H42       1.0  0.25281  0.56049  0.71725  1.0000
  H   H43       1.0  0.25302  0.56059  0.79829  1.0000
  O   O43       1.0  0.25296  0.52715  0.84575  1.0000
  O   O44       1.0  0.25305  0.60099  0.88259  1.0000
  H   H44       1.0  0.25284  0.69584  0.86576  1.0000
  H   H45       1.0  0.25326  0.99280  0.79811  1.0000
  O   O45       1.0  0.25299  0.02643  0.84554  1.0000
  O   O46       1.0  0.25269  0.95272  0.88244  1.0000
  H   H46       1.0  0.25255  0.85781  0.86571  1.0000
  H   H47       1.0  0.25267  0.85754  0.64961  1.0000
  O   O47       1.0  0.25317  0.95242  0.63282  1.0000
  O   O48       1.0  0.25342  0.02621  0.66968  1.0000
  H   H48       1.0  0.25343  0.99269  0.71714  1.0000
  Ni  Ni6       1.0  0.25265  0.77664  0.75768  1.0000
  C   C193      1.0  0.31118  0.02947  0.06193  1.0000
  C   C194      1.0  0.29679  0.02935  0.08933  1.0000
  C   C195      1.0  0.33703  0.02914  0.10949  1.0000
  C   C196      1.0  0.39187  0.02902  0.10233  1.0000
  C   C197      1.0  0.40435  0.02913  0.07501  1.0000
  C   C198      1.0  0.36586  0.02938  0.05573  1.0000
  C   C199      1.0  0.39156  0.02943  0.03087  1.0000
  N   N49       1.0  0.44724  0.02922  0.03435  1.0000
  C   C200      1.0  0.45412  0.02903  0.06219  1.0000
  N   N50       1.0  0.50054  0.02876  0.07590  1.0000
  C   C201      1.0  0.54700  0.02877  0.06223  1.0000
  N   N51       1.0  0.55395  0.02894  0.03438  1.0000
  C   C202      1.0  0.60964  0.02898  0.03094  1.0000
  C   C203      1.0  0.63528  0.02879  0.05582  1.0000
  C   C204      1.0  0.59674  0.02868  0.07507  1.0000
  N   N52       1.0  0.55402  0.02907  0.98103  1.0000
  C   C205      1.0  0.60970  0.02917  0.98450  1.0000
  N   N53       1.0  0.63706  0.02922  0.00773  1.0000
  C   C206      1.0  0.63540  0.02907  0.95964  1.0000
  C   C207      1.0  0.59691  0.02889  0.94037  1.0000
  C   C208      1.0  0.54715  0.02886  0.95319  1.0000
  C   C209      1.0  0.60917  0.02858  0.10241  1.0000
  C   C210      1.0  0.66399  0.02855  0.10959  1.0000
  C   C211      1.0  0.70427  0.02857  0.08945  1.0000
  C   C212      1.0  0.68993  0.02873  0.06204  1.0000
  C   C213      1.0  0.60937  0.02881  0.91304  1.0000
  C   C214      1.0  0.66420  0.02892  0.90588  1.0000
  C   C215      1.0  0.70445  0.02906  0.92603  1.0000
  C   C216      1.0  0.69007  0.02912  0.95344  1.0000
  N   N54       1.0  0.44732  0.02909  0.98100  1.0000
  C   C217      1.0  0.45427  0.02887  0.95316  1.0000
  N   N55       1.0  0.50073  0.02867  0.93948  1.0000
  C   C218      1.0  0.40456  0.02892  0.94030  1.0000
  C   C219      1.0  0.36600  0.02918  0.95955  1.0000
  C   C220      1.0  0.39163  0.02931  0.98443  1.0000
  C   C221      1.0  0.31135  0.02922  0.95330  1.0000
  C   C222      1.0  0.29706  0.02901  0.92588  1.0000
  C   C223      1.0  0.33738  0.02884  0.90576  1.0000
  C   C224      1.0  0.39219  0.02878  0.91297  1.0000
  N   N56       1.0  0.36421  0.02958  0.00764  1.0000
  H   H49       1.0  0.28448  0.02961  0.04811  1.0000
  O   O49       1.0  0.25085  0.02942  0.09554  1.0000
  O   O50       1.0  0.32454  0.02907  0.13245  1.0000
  H   H50       1.0  0.41947  0.02886  0.11571  1.0000
  H   H51       1.0  0.58155  0.02855  0.11577  1.0000
  O   O51       1.0  0.67643  0.02851  0.13255  1.0000
  O   O52       1.0  0.75020  0.02845  0.09568  1.0000
  H   H52       1.0  0.71667  0.02877  0.04824  1.0000
  H   H53       1.0  0.58177  0.02870  0.89967  1.0000
  O   O53       1.0  0.67667  0.02894  0.88292  1.0000
  O   O54       1.0  0.75038  0.02913  0.91982  1.0000
  H   H54       1.0  0.71679  0.02920  0.96725  1.0000
  H   H55       1.0  0.28459  0.02936  0.96710  1.0000
  O   O55       1.0  0.25114  0.02896  0.91963  1.0000
  O   O56       1.0  0.32497  0.02874  0.88279  1.0000
  H   H56       1.0  0.41984  0.02864  0.89962  1.0000
  Ni  Ni7       1.0  0.50063  0.02916  0.00769  1.0000
  C   C225      1.0  0.24783  0.16809  0.16297  1.0000
  C   C226      1.0  0.24792  0.11328  0.15577  1.0000
  C   C227      1.0  0.24806  0.07297  0.17589  1.0000
  C   C228      1.0  0.24816  0.08728  0.20331  1.0000
  C   C229      1.0  0.24809  0.14194  0.20955  1.0000
  C   C230      1.0  0.24790  0.18048  0.19030  1.0000
  C   C231      1.0  0.24787  0.23021  0.20315  1.0000
  N   N57       1.0  0.24803  0.22326  0.23099  1.0000
  C   C232      1.0  0.24817  0.16757  0.23443  1.0000
  N   N58       1.0  0.24838  0.14015  0.25765  1.0000
  C   C233      1.0  0.24837  0.16751  0.28088  1.0000
  N   N59       1.0  0.24824  0.22319  0.28435  1.0000
  C   C234      1.0  0.24816  0.23008  0.31219  1.0000
  C   C235      1.0  0.24829  0.18032  0.32501  1.0000
  C   C236      1.0  0.24840  0.14182  0.30575  1.0000
  N   N60       1.0  0.24820  0.32990  0.28438  1.0000
  C   C237      1.0  0.24805  0.32296  0.31222  1.0000
  N   N61       1.0  0.24795  0.27650  0.32590  1.0000
  C   C238      1.0  0.24818  0.37269  0.32507  1.0000
  C   C239      1.0  0.24841  0.41123  0.30582  1.0000
  C   C240      1.0  0.24846  0.38559  0.28094  1.0000
  C   C241      1.0  0.24844  0.08715  0.31196  1.0000
  C   C242      1.0  0.24843  0.07279  0.33937  1.0000
  C   C243      1.0  0.24842  0.11306  0.35951  1.0000
  C   C244      1.0  0.24831  0.16788  0.35234  1.0000
  C   C245      1.0  0.24854  0.46589  0.31205  1.0000
  C   C246      1.0  0.24839  0.48021  0.33946  1.0000
  C   C247      1.0  0.24820  0.43991  0.35959  1.0000
  C   C248      1.0  0.24810  0.38510  0.35241  1.0000
  N   N62       1.0  0.24825  0.32996  0.23103  1.0000
  C   C249      1.0  0.24852  0.38564  0.23451  1.0000
  N   N63       1.0  0.24871  0.41301  0.25773  1.0000
  C   C250      1.0  0.24852  0.41135  0.20965  1.0000
  C   C251      1.0  0.24825  0.37286  0.19037  1.0000
  C   C252      1.0  0.24806  0.32309  0.20319  1.0000
  C   C253      1.0  0.24827  0.38535  0.16304  1.0000
  C   C254      1.0  0.24853  0.44019  0.15590  1.0000
  C   C255      1.0  0.24871  0.48043  0.17605  1.0000
  C   C256      1.0  0.24871  0.46602  0.20346  1.0000
  N   N64       1.0  0.24778  0.27667  0.18948  1.0000
  H   H57       1.0  0.24773  0.19573  0.14961  1.0000
  O   O57       1.0  0.24787  0.10086  0.13280  1.0000
  O   O58       1.0  0.24810  0.02705  0.16965  1.0000
  H   H58       1.0  0.24827  0.06053  0.21712  1.0000
  H   H59       1.0  0.24848  0.06042  0.29815  1.0000
  O   O59       1.0  0.24842  0.02686  0.34560  1.0000
  O   O60       1.0  0.24849  0.10060  0.38248  1.0000
  H   H60       1.0  0.24828  0.19550  0.36571  1.0000
  H   H61       1.0  0.24869  0.49263  0.29825  1.0000
  O   O61       1.0  0.24841  0.52614  0.34570  1.0000
  O   O62       1.0  0.24810  0.45234  0.38256  1.0000
  H   H62       1.0  0.24797  0.35747  0.36577  1.0000
  H   H63       1.0  0.24812  0.35775  0.14967  1.0000
  O   O63       1.0  0.24862  0.45268  0.13294  1.0000
  O   O64       1.0  0.24885  0.52637  0.16985  1.0000
  H   H64       1.0  0.24886  0.49273  0.21728  1.0000
  Ni  Ni8       1.0  0.24810  0.27658  0.25769  1.0000
  C   C257      1.0  0.75240  0.16784  0.16303  1.0000
  C   C258      1.0  0.75248  0.11301  0.15587  1.0000
  C   C259      1.0  0.75263  0.07275  0.17602  1.0000
  C   C260      1.0  0.75272  0.08714  0.20343  1.0000
  C   C261      1.0  0.75265  0.14181  0.20963  1.0000
  C   C262      1.0  0.75246  0.18031  0.19036  1.0000
  C   C263      1.0  0.75243  0.23006  0.20317  1.0000
  N   N65       1.0  0.75260  0.22319  0.23102  1.0000
  C   C264      1.0  0.75273  0.16751  0.23449  1.0000
  N   N66       1.0  0.75295  0.14015  0.25772  1.0000
  C   C265      1.0  0.75294  0.16756  0.28094  1.0000
  N   N67       1.0  0.75280  0.22326  0.28437  1.0000
  C   C266      1.0  0.75273  0.23022  0.31221  1.0000
  C   C267      1.0  0.75286  0.18050  0.32507  1.0000
  C   C268      1.0  0.75297  0.14194  0.30582  1.0000
  N   N68       1.0  0.75277  0.32996  0.28433  1.0000
  C   C269      1.0  0.75262  0.32310  0.31218  1.0000
  N   N69       1.0  0.75252  0.27668  0.32589  1.0000
  C   C270      1.0  0.75275  0.37286  0.32500  1.0000
  C   C271      1.0  0.75298  0.41136  0.30572  1.0000
  C   C272      1.0  0.75302  0.38565  0.28086  1.0000
  C   C273      1.0  0.75301  0.08729  0.31208  1.0000
  C   C274      1.0  0.75300  0.07300  0.33950  1.0000
  C   C275      1.0  0.75298  0.11332  0.35961  1.0000
  C   C276      1.0  0.75288  0.16813  0.35240  1.0000
  C   C277      1.0  0.75311  0.46603  0.31192  1.0000
  C   C278      1.0  0.75296  0.48042  0.33932  1.0000
  C   C279      1.0  0.75277  0.44018  0.35947  1.0000
  C   C280      1.0  0.75267  0.38534  0.35232  1.0000
  N   N70       1.0  0.75282  0.32989  0.23099  1.0000
  C   C281      1.0  0.75308  0.38558  0.23442  1.0000
  N   N71       1.0  0.75327  0.41300  0.25763  1.0000
  C   C282      1.0  0.75309  0.41122  0.20955  1.0000
  C   C283      1.0  0.75282  0.37268  0.19030  1.0000
  C   C284      1.0  0.75263  0.32295  0.20315  1.0000
  C   C285      1.0  0.75283  0.38510  0.16296  1.0000
  C   C286      1.0  0.75309  0.43992  0.15578  1.0000
  C   C287      1.0  0.75327  0.48021  0.17591  1.0000
  C   C288      1.0  0.75328  0.46588  0.20332  1.0000
  N   N72       1.0  0.75234  0.27649  0.18947  1.0000
  H   H65       1.0  0.75230  0.19545  0.14965  1.0000
  O   O65       1.0  0.75243  0.10053  0.13290  1.0000
  O   O66       1.0  0.75267  0.02681  0.16980  1.0000
  H   H66       1.0  0.75284  0.06042  0.21725  1.0000
  H   H67       1.0  0.75304  0.06052  0.29828  1.0000
  O   O67       1.0  0.75298  0.02708  0.34575  1.0000
  O   O68       1.0  0.75306  0.10093  0.38258  1.0000
  H   H68       1.0  0.75284  0.19578  0.36575  1.0000
  H   H69       1.0  0.75325  0.49274  0.29810  1.0000
  O   O69       1.0  0.75298  0.52636  0.34553  1.0000
  O   O70       1.0  0.75267  0.45266  0.38243  1.0000
  H   H70       1.0  0.75254  0.35775  0.36570  1.0000
  H   H71       1.0  0.75269  0.35747  0.14960  1.0000
  O   O71       1.0  0.75318  0.45235  0.13281  1.0000
  O   O72       1.0  0.75342  0.52614  0.16968  1.0000
  H   H72       1.0  0.75343  0.49262  0.21713  1.0000
  Ni  Ni9       1.0  0.75266  0.27657  0.25768  1.0000
  C   C289      1.0  0.74783  0.66816  0.66297  1.0000
  C   C290      1.0  0.74792  0.61335  0.65577  1.0000
  C   C291      1.0  0.74807  0.57304  0.67589  1.0000
  C   C292      1.0  0.74817  0.58735  0.70332  1.0000
  C   C293      1.0  0.74809  0.64200  0.70955  1.0000
  C   C294      1.0  0.74790  0.68055  0.69031  1.0000
  C   C295      1.0  0.74787  0.73028  0.70316  1.0000
  N   N73       1.0  0.74803  0.72333  0.73100  1.0000
  C   C296      1.0  0.74817  0.66763  0.73443  1.0000
  N   N74       1.0  0.74839  0.64021  0.75765  1.0000
  C   C297      1.0  0.74838  0.66757  0.78088  1.0000
  N   N75       1.0  0.74824  0.72326  0.78435  1.0000
  C   C298      1.0  0.74817  0.73014  0.81220  1.0000
  C   C299      1.0  0.74830  0.68039  0.82502  1.0000
  C   C300      1.0  0.74841  0.64188  0.80575  1.0000
  N   N76       1.0  0.74820  0.82996  0.78438  1.0000
  C   C301      1.0  0.74805  0.82302  0.81223  1.0000
  N   N77       1.0  0.74795  0.77657  0.82591  1.0000
  C   C302      1.0  0.74818  0.87275  0.82507  1.0000
  C   C303      1.0  0.74841  0.91130  0.80582  1.0000
  C   C304      1.0  0.74845  0.88566  0.78095  1.0000
  C   C305      1.0  0.74846  0.58721  0.81196  1.0000
  C   C306      1.0  0.74845  0.57285  0.83937  1.0000
  C   C307      1.0  0.74843  0.61312  0.85952  1.0000
  C   C308      1.0  0.74832  0.66794  0.85235  1.0000
  C   C309      1.0  0.74853  0.96595  0.81206  1.0000
  C   C310      1.0  0.74839  0.98027  0.83947  1.0000
  C   C311      1.0  0.74819  0.93998  0.85960  1.0000
  C   C312      1.0  0.74810  0.88516  0.85241  1.0000
  N   N78       1.0  0.74825  0.83003  0.73104  1.0000
  C   C313      1.0  0.74851  0.88571  0.73451  1.0000
  N   N79       1.0  0.74870  0.91307  0.75774  1.0000
  C   C314      1.0  0.74851  0.91142  0.70965  1.0000
  C   C315      1.0  0.74824  0.87293  0.69037  1.0000
  C   C316      1.0  0.74806  0.82316  0.70319  1.0000
  C   C317      1.0  0.74825  0.88542  0.66305  1.0000
  C   C318      1.0  0.74851  0.94026  0.65590  1.0000
  C   C319      1.0  0.74869  0.98050  0.67606  1.0000
  C   C320      1.0  0.74869  0.96609  0.70346  1.0000
  N   N80       1.0  0.74777  0.77674  0.68948  1.0000
  H   H73       1.0  0.74773  0.69580  0.64961  1.0000
  O   O73       1.0  0.74787  0.60093  0.63280  1.0000
  O   O74       1.0  0.74811  0.52712  0.66965  1.0000
  H   H74       1.0  0.74828  0.56060  0.71712  1.0000
  H   H75       1.0  0.74849  0.56048  0.79815  1.0000
  O   O75       1.0  0.74844  0.52692  0.84560  1.0000
  O   O76       1.0  0.74851  0.60066  0.88248  1.0000
  H   H76       1.0  0.74829  0.69556  0.86571  1.0000
  H   H77       1.0  0.74867  0.99270  0.79826  1.0000
  O   O77       1.0  0.74840  0.02620  0.84571  1.0000
  O   O78       1.0  0.74810  0.95240  0.88256  1.0000
  H   H78       1.0  0.74798  0.85753  0.86577  1.0000
  H   H79       1.0  0.74811  0.85782  0.64967  1.0000
  O   O79       1.0  0.74860  0.95275  0.63294  1.0000
  O   O80       1.0  0.74883  0.02644  0.66985  1.0000
  H   H80       1.0  0.74884  0.99279  0.71729  1.0000
  Ni  Ni10      1.0  0.74810  0.77664  0.75769  1.0000
  C   C321      1.0  0.31132  0.52490  0.06207  1.0000
  C   C322      1.0  0.29700  0.52478  0.08948  1.0000
  C   C323      1.0  0.33730  0.52457  0.10961  1.0000
  C   C324      1.0  0.39212  0.52445  0.10242  1.0000
  C   C325      1.0  0.40452  0.52456  0.07509  1.0000
  C   C326      1.0  0.36598  0.52481  0.05584  1.0000
  C   C327      1.0  0.39162  0.52486  0.03096  1.0000
  N   N81       1.0  0.44731  0.52466  0.03440  1.0000
  C   C328      1.0  0.45425  0.52447  0.06224  1.0000
  N   N82       1.0  0.50071  0.52421  0.07592  1.0000
  C   C329      1.0  0.54714  0.52421  0.06221  1.0000
  N   N83       1.0  0.55401  0.52439  0.03437  1.0000
  C   C330      1.0  0.60970  0.52443  0.03089  1.0000
  C   C331      1.0  0.63540  0.52424  0.05575  1.0000
  C   C332      1.0  0.59691  0.52413  0.07503  1.0000
  N   N84       1.0  0.55395  0.52451  0.98102  1.0000
  C   C333      1.0  0.60964  0.52462  0.98445  1.0000
  N   N85       1.0  0.63706  0.52466  0.00766  1.0000
  C   C334      1.0  0.63527  0.52451  0.95957  1.0000
  C   C335      1.0  0.59673  0.52434  0.94032  1.0000
  C   C336      1.0  0.54700  0.52430  0.95318  1.0000
  C   C337      1.0  0.60941  0.52403  0.10235  1.0000
  C   C338      1.0  0.66425  0.52400  0.10950  1.0000
  C   C339      1.0  0.70448  0.52402  0.08934  1.0000
  C   C340      1.0  0.69007  0.52418  0.06194  1.0000
  C   C341      1.0  0.60912  0.52425  0.91299  1.0000
  C   C342      1.0  0.66393  0.52437  0.90579  1.0000
  C   C343      1.0  0.70423  0.52451  0.92592  1.0000
  C   C344      1.0  0.68993  0.52457  0.95333  1.0000
  N   N86       1.0  0.44725  0.52453  0.98105  1.0000
  C   C345      1.0  0.45413  0.52430  0.95321  1.0000
  N   N87       1.0  0.50055  0.52410  0.93950  1.0000
  C   C346      1.0  0.40438  0.52435  0.94038  1.0000
  C   C347      1.0  0.36588  0.52461  0.95965  1.0000
  C   C348      1.0  0.39157  0.52474  0.98452  1.0000
  C   C349      1.0  0.31121  0.52464  0.95344  1.0000
  C   C350      1.0  0.29685  0.52443  0.92603  1.0000
  C   C351      1.0  0.33711  0.52426  0.90589  1.0000
  C   C352      1.0  0.39194  0.52421  0.91306  1.0000
  N   N88       1.0  0.36421  0.52501  0.00775  1.0000
  H   H81       1.0  0.28458  0.52504  0.04826  1.0000
  O   O81       1.0  0.25107  0.52485  0.09572  1.0000
  O   O82       1.0  0.32486  0.52450  0.13258  1.0000
  H   H82       1.0  0.41975  0.52430  0.11578  1.0000
  H   H83       1.0  0.58182  0.52399  0.11573  1.0000
  O   O83       1.0  0.67675  0.52397  0.13246  1.0000
  O   O84       1.0  0.75043  0.52391  0.09554  1.0000
  H   H84       1.0  0.71677  0.52422  0.04811  1.0000
  H   H85       1.0  0.58149  0.52414  0.89963  1.0000
  O   O85       1.0  0.67635  0.52438  0.88282  1.0000
  O   O86       1.0  0.75015  0.52458  0.91968  1.0000
  H   H86       1.0  0.71668  0.52466  0.96713  1.0000
  H   H87       1.0  0.28449  0.52478  0.96726  1.0000
  O   O87       1.0  0.25091  0.52438  0.91981  1.0000
  O   O88       1.0  0.32465  0.52417  0.88292  1.0000
  H   H88       1.0  0.41955  0.52407  0.89969  1.0000
  Ni  Ni11      1.0  0.50063  0.52460  0.00771  1.0000
  C   C353      1.0  0.81118  0.52952  0.56192  1.0000
  C   C354      1.0  0.79678  0.52941  0.58933  1.0000
  C   C355      1.0  0.83703  0.52922  0.60948  1.0000
  C   C356      1.0  0.89187  0.52909  0.60233  1.0000
  C   C357      1.0  0.90435  0.52919  0.57500  1.0000
  C   C358      1.0  0.86585  0.52943  0.55573  1.0000
  C   C359      1.0  0.89156  0.52946  0.53087  1.0000
  N   N89       1.0  0.94724  0.52926  0.53434  1.0000
  C   C360      1.0  0.95411  0.52909  0.56219  1.0000
  N   N90       1.0  0.00010  0.52883  0.57590  1.0000
  C   C361      1.0  0.04700  0.52883  0.56222  1.0000
  N   N91       1.0  0.05394  0.52899  0.53437  1.0000
  C   C362      1.0  0.10963  0.52903  0.53093  1.0000
  C   C363      1.0  0.13527  0.52885  0.55581  1.0000
  C   C364      1.0  0.09674  0.52875  0.57506  1.0000
  N   N92       1.0  0.05401  0.52908  0.48103  1.0000
  C   C365      1.0  0.10970  0.52919  0.48449  1.0000
  N   N93       1.0  0.13706  0.52925  0.50772  1.0000
  C   C366      1.0  0.13539  0.52907  0.45963  1.0000
  C   C367      1.0  0.09689  0.52889  0.44036  1.0000
  C   C368      1.0  0.04714  0.52886  0.45318  1.0000
  C   C369      1.0  0.10916  0.52867  0.60240  1.0000
  C   C370      1.0  0.16399  0.52864  0.60958  1.0000
  C   C371      1.0  0.20427  0.52865  0.58944  1.0000
  C   C372      1.0  0.18993  0.52879  0.56203  1.0000
  C   C373      1.0  0.10936  0.52879  0.41303  1.0000
  C   C374      1.0  0.16418  0.52890  0.40587  1.0000
  C   C375      1.0  0.20443  0.52905  0.42602  1.0000
  C   C376      1.0  0.19006  0.52913  0.45343  1.0000
  N   N94       1.0  0.94732  0.52910  0.48099  1.0000
  C   C377      1.0  0.95426  0.52886  0.45315  1.0000
  N   N95       1.0  0.00010  0.52866  0.43947  1.0000
  C   C378      1.0  0.90455  0.52891  0.44030  1.0000
  C   C379      1.0  0.86600  0.52918  0.45954  1.0000
  C   C380      1.0  0.89163  0.52932  0.48442  1.0000
  C   C381      1.0  0.81134  0.52921  0.45330  1.0000
  C   C382      1.0  0.79705  0.52899  0.42588  1.0000
  C   C383      1.0  0.83737  0.52880  0.40576  1.0000
  C   C384      1.0  0.89217  0.52876  0.41296  1.0000
  N   N96       1.0  0.86421  0.52960  0.50764  1.0000
  H   H89       1.0  0.78447  0.52965  0.54810  1.0000
  O   O89       1.0  0.75084  0.52948  0.59553  1.0000
  O   O90       1.0  0.82454  0.52916  0.63244  1.0000
  H   H90       1.0  0.91947  0.52895  0.61570  1.0000
  H   H91       1.0  0.08154  0.52863  0.61576  1.0000
  O   O91       1.0  0.17643  0.52862  0.63254  1.0000
  O   O92       1.0  0.25020  0.52853  0.59567  1.0000
  H   H92       1.0  0.21667  0.52882  0.54823  1.0000
  H   H93       1.0  0.08176  0.52867  0.39966  1.0000
  O   O93       1.0  0.17666  0.52890  0.38291  1.0000
  O   O94       1.0  0.25037  0.52912  0.41981  1.0000
  H   H94       1.0  0.21678  0.52922  0.46724  1.0000
  H   H95       1.0  0.78459  0.52935  0.46709  1.0000
  O   O95       1.0  0.75113  0.52893  0.41963  1.0000
  O   O96       1.0  0.82496  0.52869  0.38279  1.0000
  H   H96       1.0  0.91982  0.52861  0.39961  1.0000
  Ni  Ni12      1.0  0.00010  0.52919  0.50768  1.0000
