data_image0
_chemical_formula_structural       Fe16C7NCNCNC3NCNC11NCNC7NHO2H2O2H2O2H2O2HNiC7NCNCNC3NCNC11NCNC7NHO2H2O2H2O2H2O2HNiC7NCNCNC3NCNC11NCNC7NHO2H2O2H2O2H2O2HNiC7NCNCNC3NCNC11NCNC7NHO2H2O2H2O2H2O2HNiC6HO2HO2C6HO2HO2C6HO2HO2C6HO2HO2C6HO2HO2C6HO2HO2C6HO2HO2C6HO2HO2C6HO2HO2C6HO2HO2C6HO2HO2C6HO2HO2C6HO2HO2C6HO2HO2C6HO2HO2C6HO2HO2C6O2HO2HCuC6O2HO2HCuC6O2HO2HCuC6O2HO2HCuC6O2HO2HCuC6O2HO2HCuC6O2HO2HCuC6O2HO2HCuC6O2HO2HCuC6O2HO2HCuC6O2HO2HCuC6O2HO2HCuC6O2HO2HCuC6O2HO2HCuC6O2HO2HCuC6O2HO2HCu
_chemical_formula_sum              "Fe16 C320 N32 H96 O160 Ni4 Cu16"
_cell_length_a       61.5199
_cell_length_b       61.5422
_cell_length_c       21.1072
_cell_angle_alpha    90.0028
_cell_angle_beta     89.9993
_cell_angle_gamma    90

_space_group_name_H-M_alt    "P 1"
_space_group_IT_number       1

loop_
  _space_group_symop_operation_xyz
  'x, y, z'

loop_
  _atom_site_type_symbol
  _atom_site_label
  _atom_site_symmetry_multiplicity
  _atom_site_fract_x
  _atom_site_fract_y
  _atom_site_fract_z
  _atom_site_occupancy
  Fe  Fe1       1.0  0.20800  0.54289  0.12503  1.0000
  Fe  Fe2       1.0  0.70801  0.95705  0.37500  1.0000
  Fe  Fe3       1.0  0.29372  0.45706  0.62503  1.0000
  Fe  Fe4       1.0  0.79369  0.04291  0.87503  1.0000
  Fe  Fe5       1.0  0.20801  0.45704  0.87535  1.0000
  Fe  Fe6       1.0  0.79368  0.95702  0.12463  1.0000
  Fe  Fe7       1.0  0.29369  0.54292  0.37539  1.0000
  Fe  Fe8       1.0  0.70804  0.04293  0.62463  1.0000
  Fe  Fe9       1.0  0.79371  0.45702  0.87557  1.0000
  Fe  Fe10      1.0  0.29369  0.04295  0.62441  1.0000
  Fe  Fe11      1.0  0.70806  0.54295  0.37560  1.0000
  Fe  Fe12      1.0  0.20807  0.95703  0.12443  1.0000
  Fe  Fe13      1.0  0.79375  0.54290  0.12522  1.0000
  Fe  Fe14      1.0  0.20804  0.04289  0.87479  1.0000
  Fe  Fe15      1.0  0.70801  0.45708  0.62524  1.0000
  Fe  Fe16      1.0  0.29374  0.95708  0.37477  1.0000
  C   C1        1.0  0.08498  0.79819  0.12446  1.0000
  C   C2        1.0  0.09135  0.82253  0.12426  1.0000
  C   C3        1.0  0.07347  0.84041  0.12402  1.0000
  C   C4        1.0  0.04912  0.83404  0.12393  1.0000
  C   C5        1.0  0.04360  0.80978  0.12411  1.0000
  C   C6        1.0  0.06070  0.79268  0.12440  1.0000
  C   C7        1.0  0.04930  0.77060  0.12452  1.0000
  N   N1        1.0  0.02457  0.77367  0.12431  1.0000
  C   C8        1.0  0.02151  0.79839  0.12405  1.0000
  N   N2        1.0  0.00010  0.81054  0.12374  1.0000
  C   C9        1.0  0.98026  0.79839  0.12381  1.0000
  N   N3        1.0  0.97719  0.77367  0.12406  1.0000
  C   C10       1.0  0.95247  0.77060  0.12418  1.0000
  C   C11       1.0  0.94107  0.79267  0.12394  1.0000
  C   C12       1.0  0.95817  0.80978  0.12374  1.0000
  N   N4        1.0  0.97719  0.72631  0.12427  1.0000
  C   C13       1.0  0.95246  0.72937  0.12446  1.0000
  N   N5        1.0  0.94030  0.74998  0.12453  1.0000
  C   C14       1.0  0.94107  0.70729  0.12437  1.0000
  C   C15       1.0  0.95817  0.69019  0.12412  1.0000
  C   C16       1.0  0.98026  0.70159  0.12402  1.0000
  C   C17       1.0  0.95263  0.83404  0.12360  1.0000
  C   C18       1.0  0.92828  0.84040  0.12361  1.0000
  C   C19       1.0  0.91041  0.82251  0.12370  1.0000
  C   C20       1.0  0.91679  0.79818  0.12391  1.0000
  C   C21       1.0  0.95265  0.66593  0.12404  1.0000
  C   C22       1.0  0.92831  0.65956  0.12426  1.0000
  C   C23       1.0  0.91043  0.67743  0.12446  1.0000
  C   C24       1.0  0.91679  0.70177  0.12451  1.0000
  N   N6        1.0  0.02457  0.72631  0.12418  1.0000
  C   C25       1.0  0.02150  0.70159  0.12392  1.0000
  N   N7        1.0  0.00010  0.68943  0.12372  1.0000
  C   C26       1.0  0.04358  0.69019  0.12394  1.0000
  C   C27       1.0  0.06069  0.70729  0.12422  1.0000
  C   C28       1.0  0.04930  0.72937  0.12440  1.0000
  C   C29       1.0  0.08496  0.70176  0.12422  1.0000
  C   C30       1.0  0.09133  0.67742  0.12395  1.0000
  C   C31       1.0  0.07344  0.65955  0.12379  1.0000
  C   C32       1.0  0.04909  0.66593  0.12378  1.0000
  N   N8        1.0  0.06146  0.74998  0.12470  1.0000
  H   H1        1.0  0.09684  0.78593  0.12462  1.0000
  O   O1        1.0  0.11175  0.82805  0.12430  1.0000
  O   O2        1.0  0.07900  0.86079  0.12390  1.0000
  H   H2        1.0  0.03686  0.84591  0.12375  1.0000
  H   H3        1.0  0.96489  0.84591  0.12352  1.0000
  O   O3        1.0  0.92275  0.86078  0.12357  1.0000
  O   O4        1.0  0.89001  0.82803  0.12359  1.0000
  H   H4        1.0  0.90493  0.78592  0.12400  1.0000
  H   H5        1.0  0.96492  0.65406  0.12388  1.0000
  O   O5        1.0  0.92279  0.63917  0.12431  1.0000
  O   O6        1.0  0.89003  0.67190  0.12461  1.0000
  H   H6        1.0  0.90492  0.71402  0.12463  1.0000
  H   H7        1.0  0.09684  0.71401  0.12436  1.0000
  O   O7        1.0  0.11172  0.67189  0.12385  1.0000
  O   O8        1.0  0.07896  0.63916  0.12367  1.0000
  H   H8        1.0  0.03682  0.65407  0.12363  1.0000
  Ni  Ni1       1.0  0.00010  0.74999  0.12431  1.0000
  C   C33       1.0  0.41677  0.70177  0.37658  1.0000
  C   C34       1.0  0.41039  0.67743  0.37646  1.0000
  C   C35       1.0  0.42828  0.65955  0.37627  1.0000
  C   C36       1.0  0.45262  0.66592  0.37616  1.0000
  C   C37       1.0  0.45815  0.69018  0.37627  1.0000
  C   C38       1.0  0.44104  0.70728  0.37651  1.0000
  C   C39       1.0  0.45244  0.72936  0.37656  1.0000
  N   N9        1.0  0.47717  0.72629  0.37636  1.0000
  C   C40       1.0  0.48024  0.70158  0.37618  1.0000
  N   N10       1.0  0.50086  0.68942  0.37591  1.0000
  C   C41       1.0  0.52149  0.70157  0.37594  1.0000
  N   N11       1.0  0.52455  0.72629  0.37612  1.0000
  C   C42       1.0  0.54928  0.72936  0.37623  1.0000
  C   C43       1.0  0.56068  0.70729  0.37606  1.0000
  C   C44       1.0  0.54358  0.69018  0.37591  1.0000
  N   N12       1.0  0.52455  0.77365  0.37619  1.0000
  C   C45       1.0  0.54928  0.77059  0.37639  1.0000
  N   N13       1.0  0.56144  0.74998  0.37652  1.0000
  C   C46       1.0  0.56068  0.79267  0.37624  1.0000
  C   C47       1.0  0.54357  0.80977  0.37594  1.0000
  C   C48       1.0  0.52149  0.79837  0.37587  1.0000
  C   C49       1.0  0.54911  0.66592  0.37584  1.0000
  C   C50       1.0  0.57346  0.65956  0.37587  1.0000
  C   C51       1.0  0.59134  0.67745  0.37590  1.0000
  C   C52       1.0  0.58495  0.70178  0.37605  1.0000
  C   C53       1.0  0.54909  0.83403  0.37579  1.0000
  C   C54       1.0  0.57343  0.84040  0.37599  1.0000
  C   C55       1.0  0.59132  0.82253  0.37625  1.0000
  C   C56       1.0  0.58495  0.79819  0.37636  1.0000
  N   N14       1.0  0.47718  0.77365  0.37610  1.0000
  C   C57       1.0  0.48024  0.79837  0.37577  1.0000
  N   N15       1.0  0.50086  0.81053  0.37554  1.0000
  C   C58       1.0  0.45816  0.80977  0.37576  1.0000
  C   C59       1.0  0.44105  0.79267  0.37609  1.0000
  C   C60       1.0  0.45245  0.77059  0.37633  1.0000
  C   C61       1.0  0.41678  0.79820  0.37606  1.0000
  C   C62       1.0  0.41042  0.82254  0.37573  1.0000
  C   C63       1.0  0.42831  0.84041  0.37552  1.0000
  C   C64       1.0  0.45265  0.83403  0.37552  1.0000
  N   N16       1.0  0.44029  0.74998  0.37668  1.0000
  H   H9        1.0  0.40490  0.71403  0.37671  1.0000
  O   O9        1.0  0.39000  0.67191  0.37651  1.0000
  O   O10       1.0  0.42274  0.63917  0.37621  1.0000
  H   H10       1.0  0.46489  0.65406  0.37602  1.0000
  H   H11       1.0  0.53686  0.65405  0.37579  1.0000
  O   O11       1.0  0.57900  0.63918  0.37588  1.0000
  O   O12       1.0  0.61174  0.67193  0.37581  1.0000
  H   H12       1.0  0.59682  0.71404  0.37610  1.0000
  H   H13       1.0  0.53683  0.84590  0.37560  1.0000
  O   O13       1.0  0.57896  0.86079  0.37598  1.0000
  O   O14       1.0  0.61171  0.82806  0.37638  1.0000
  H   H14       1.0  0.59682  0.78594  0.37652  1.0000
  H   H15       1.0  0.40491  0.78595  0.37624  1.0000
  O   O15       1.0  0.39003  0.82807  0.37561  1.0000
  O   O16       1.0  0.42279  0.86080  0.37533  1.0000
  H   H16       1.0  0.46492  0.84589  0.37534  1.0000
  Ni  Ni2       1.0  0.50086  0.74997  0.37630  1.0000
  C   C65       1.0  0.58497  0.20178  0.62344  1.0000
  C   C66       1.0  0.59134  0.17744  0.62356  1.0000
  C   C67       1.0  0.57346  0.15956  0.62375  1.0000
  C   C68       1.0  0.54911  0.16593  0.62386  1.0000
  C   C69       1.0  0.54359  0.19019  0.62375  1.0000
  C   C70       1.0  0.56069  0.20729  0.62351  1.0000
  C   C71       1.0  0.54929  0.22937  0.62346  1.0000
  N   N17       1.0  0.52457  0.22630  0.62366  1.0000
  C   C72       1.0  0.52150  0.20158  0.62384  1.0000
  N   N18       1.0  0.50088  0.18943  0.62411  1.0000
  C   C73       1.0  0.48025  0.20158  0.62408  1.0000
  N   N19       1.0  0.47719  0.22630  0.62390  1.0000
  C   C74       1.0  0.45246  0.22937  0.62379  1.0000
  C   C75       1.0  0.44106  0.20730  0.62396  1.0000
  C   C76       1.0  0.45816  0.19019  0.62411  1.0000
  N   N20       1.0  0.47718  0.27366  0.62383  1.0000
  C   C77       1.0  0.45246  0.27060  0.62363  1.0000
  N   N21       1.0  0.44029  0.24999  0.62350  1.0000
  C   C78       1.0  0.44106  0.29268  0.62378  1.0000
  C   C79       1.0  0.45816  0.30978  0.62408  1.0000
  C   C80       1.0  0.48025  0.29838  0.62415  1.0000
  C   C81       1.0  0.45262  0.16593  0.62418  1.0000
  C   C82       1.0  0.42828  0.15957  0.62415  1.0000
  C   C83       1.0  0.41040  0.17746  0.62412  1.0000
  C   C84       1.0  0.41678  0.20179  0.62397  1.0000
  C   C85       1.0  0.45265  0.33404  0.62423  1.0000
  C   C86       1.0  0.42830  0.34041  0.62403  1.0000
  C   C87       1.0  0.41042  0.32254  0.62377  1.0000
  C   C88       1.0  0.41679  0.29820  0.62366  1.0000
  N   N22       1.0  0.52456  0.27366  0.62392  1.0000
  C   C89       1.0  0.52149  0.29838  0.62425  1.0000
  N   N23       1.0  0.50087  0.31054  0.62448  1.0000
  C   C90       1.0  0.54358  0.30978  0.62426  1.0000
  C   C91       1.0  0.56068  0.29268  0.62393  1.0000
  C   C92       1.0  0.54929  0.27060  0.62369  1.0000
  C   C93       1.0  0.58496  0.29821  0.62396  1.0000
  C   C94       1.0  0.59132  0.32255  0.62429  1.0000
  C   C95       1.0  0.57343  0.34042  0.62451  1.0000
  C   C96       1.0  0.54909  0.33404  0.62450  1.0000
  N   N24       1.0  0.56145  0.24999  0.62334  1.0000
  H   H17       1.0  0.59684  0.21404  0.62331  1.0000
  O   O17       1.0  0.61174  0.17192  0.62351  1.0000
  O   O18       1.0  0.57899  0.13918  0.62381  1.0000
  H   H18       1.0  0.53685  0.15406  0.62400  1.0000
  H   H19       1.0  0.46488  0.15406  0.62423  1.0000
  O   O19       1.0  0.42274  0.13919  0.62414  1.0000
  O   O20       1.0  0.39000  0.17194  0.62421  1.0000
  H   H20       1.0  0.40492  0.21405  0.62392  1.0000
  H   H21       1.0  0.46491  0.34591  0.62442  1.0000
  O   O21       1.0  0.42278  0.36080  0.62404  1.0000
  O   O22       1.0  0.39002  0.32807  0.62364  1.0000
  H   H22       1.0  0.40491  0.28595  0.62350  1.0000
  H   H23       1.0  0.59683  0.28596  0.62378  1.0000
  O   O23       1.0  0.61171  0.32808  0.62442  1.0000
  O   O24       1.0  0.57895  0.36081  0.62469  1.0000
  H   H24       1.0  0.53682  0.34590  0.62468  1.0000
  Ni  Ni3       1.0  0.50088  0.24998  0.62372  1.0000
  C   C97       1.0  0.08496  0.20174  0.87533  1.0000
  C   C98       1.0  0.09134  0.17741  0.87545  1.0000
  C   C99       1.0  0.07346  0.15953  0.87566  1.0000
  C   C100      1.0  0.04911  0.16590  0.87580  1.0000
  C   C101      1.0  0.04358  0.19016  0.87570  1.0000
  C   C102      1.0  0.06069  0.20726  0.87543  1.0000
  C   C103      1.0  0.04929  0.22934  0.87539  1.0000
  N   N25       1.0  0.02456  0.22627  0.87561  1.0000
  C   C104      1.0  0.02149  0.20155  0.87581  1.0000
  N   N26       1.0  0.00010  0.18939  0.87610  1.0000
  C   C105      1.0  0.98025  0.20155  0.87609  1.0000
  N   N27       1.0  0.97718  0.22627  0.87591  1.0000
  C   C106      1.0  0.95245  0.22934  0.87582  1.0000
  C   C107      1.0  0.94105  0.20726  0.87601  1.0000
  C   C108      1.0  0.95815  0.19016  0.87615  1.0000
  N   N28       1.0  0.97718  0.27363  0.87583  1.0000
  C   C109      1.0  0.95245  0.27056  0.87566  1.0000
  N   N29       1.0  0.94029  0.24995  0.87554  1.0000
  C   C110      1.0  0.94106  0.29265  0.87582  1.0000
  C   C111      1.0  0.95816  0.30974  0.87610  1.0000
  C   C112      1.0  0.98025  0.29835  0.87615  1.0000
  C   C113      1.0  0.95262  0.16590  0.87622  1.0000
  C   C114      1.0  0.92827  0.15954  0.87622  1.0000
  C   C115      1.0  0.91040  0.17742  0.87620  1.0000
  C   C116      1.0  0.91678  0.20175  0.87605  1.0000
  C   C117      1.0  0.95264  0.33401  0.87625  1.0000
  C   C118      1.0  0.92830  0.34038  0.87607  1.0000
  C   C119      1.0  0.91042  0.32250  0.87584  1.0000
  C   C120      1.0  0.91678  0.29817  0.87572  1.0000
  N   N30       1.0  0.02456  0.27363  0.87587  1.0000
  C   C121      1.0  0.02149  0.29835  0.87620  1.0000
  N   N31       1.0  0.00010  0.31050  0.87645  1.0000
  C   C122      1.0  0.04357  0.30974  0.87619  1.0000
  C   C123      1.0  0.06068  0.29265  0.87584  1.0000
  C   C124      1.0  0.04929  0.27056  0.87561  1.0000
  C   C125      1.0  0.08495  0.29818  0.87584  1.0000
  C   C126      1.0  0.09131  0.32251  0.87616  1.0000
  C   C127      1.0  0.07342  0.34039  0.87639  1.0000
  C   C128      1.0  0.04908  0.33401  0.87642  1.0000
  N   N32       1.0  0.06145  0.24995  0.87525  1.0000
  H   H25       1.0  0.09683  0.21400  0.87519  1.0000
  O   O25       1.0  0.11174  0.17188  0.87538  1.0000
  O   O26       1.0  0.07899  0.13914  0.87572  1.0000
  H   H26       1.0  0.03685  0.15403  0.87596  1.0000
  H   H27       1.0  0.96488  0.15402  0.87627  1.0000
  O   O27       1.0  0.92273  0.13915  0.87622  1.0000
  O   O28       1.0  0.89000  0.17191  0.87632  1.0000
  H   H28       1.0  0.90491  0.21402  0.87601  1.0000
  H   H29       1.0  0.96491  0.34587  0.87643  1.0000
  O   O29       1.0  0.92277  0.36077  0.87609  1.0000
  O   O30       1.0  0.89002  0.32803  0.87573  1.0000
  H   H30       1.0  0.90491  0.28591  0.87558  1.0000
  H   H31       1.0  0.09683  0.28592  0.87565  1.0000
  O   O31       1.0  0.11171  0.32805  0.87626  1.0000
  O   O32       1.0  0.07895  0.36078  0.87657  1.0000
  H   H32       1.0  0.03681  0.34587  0.87661  1.0000
  Ni  Ni4       1.0  0.00010  0.24995  0.87570  1.0000
  C   C129      1.0  0.20800  0.51602  0.95323  1.0000
  C   C130      1.0  0.20801  0.52194  0.01727  1.0000
  C   C131      1.0  0.20802  0.50588  0.06424  1.0000
  C   C132      1.0  0.20803  0.48390  0.04717  1.0000
  C   C133      1.0  0.20802  0.47798  0.98313  1.0000
  C   C134      1.0  0.20801  0.49404  0.93616  1.0000
  H   H33       1.0  0.20799  0.52806  0.91800  1.0000
  O   O33       1.0  0.20800  0.54173  0.03263  1.0000
  O   O34       1.0  0.20802  0.51121  0.12188  1.0000
  H   H34       1.0  0.20804  0.47185  0.08240  1.0000
  O   O35       1.0  0.20803  0.45819  0.96777  1.0000
  O   O36       1.0  0.20800  0.48871  0.87852  1.0000
  C   C135      1.0  0.76696  0.95704  0.29663  1.0000
  C   C136      1.0  0.77282  0.95702  0.23253  1.0000
  C   C137      1.0  0.75670  0.95700  0.18571  1.0000
  C   C138      1.0  0.73473  0.95700  0.20299  1.0000
  C   C139      1.0  0.72887  0.95702  0.26708  1.0000
  C   C140      1.0  0.74499  0.95704  0.31391  1.0000
  H   H35       1.0  0.77905  0.95705  0.33175  1.0000
  O   O37       1.0  0.79259  0.95703  0.21699  1.0000
  O   O38       1.0  0.76197  0.95699  0.12802  1.0000
  H   H36       1.0  0.72264  0.95699  0.16787  1.0000
  O   O39       1.0  0.70910  0.95702  0.28263  1.0000
  O   O40       1.0  0.73972  0.95705  0.37159  1.0000
  C   C141      1.0  0.29371  0.51605  0.54720  1.0000
  C   C142      1.0  0.29369  0.52197  0.48316  1.0000
  C   C143      1.0  0.29368  0.50592  0.43618  1.0000
  C   C144      1.0  0.29368  0.48393  0.45323  1.0000
  C   C145      1.0  0.29369  0.47801  0.51727  1.0000
  C   C146      1.0  0.29371  0.49406  0.56425  1.0000
  H   H37       1.0  0.29372  0.52809  0.58244  1.0000
  O   O41       1.0  0.29370  0.54176  0.46782  1.0000
  O   O42       1.0  0.29367  0.51125  0.37854  1.0000
  H   H38       1.0  0.29367  0.47189  0.41799  1.0000
  O   O43       1.0  0.29369  0.45822  0.53261  1.0000
  O   O44       1.0  0.29372  0.48873  0.62188  1.0000
  C   C147      1.0  0.73474  0.04294  0.79664  1.0000
  C   C148      1.0  0.75671  0.04293  0.81393  1.0000
  C   C149      1.0  0.77284  0.04291  0.76712  1.0000
  C   C150      1.0  0.76699  0.04291  0.70302  1.0000
  C   C151      1.0  0.74502  0.04292  0.68572  1.0000
  C   C152      1.0  0.72890  0.04294  0.73253  1.0000
  H   H39       1.0  0.72265  0.04295  0.83174  1.0000
  O   O45       1.0  0.76198  0.04293  0.87162  1.0000
  O   O46       1.0  0.79261  0.04290  0.78268  1.0000
  H   H40       1.0  0.77908  0.04290  0.66791  1.0000
  O   O47       1.0  0.73976  0.04292  0.62803  1.0000
  O   O48       1.0  0.70912  0.04295  0.71697  1.0000
  C   C153      1.0  0.79373  0.51601  0.95342  1.0000
  C   C154      1.0  0.79374  0.52194  0.01746  1.0000
  C   C155      1.0  0.79372  0.50588  0.06445  1.0000
  C   C156      1.0  0.79371  0.48390  0.04739  1.0000
  C   C157      1.0  0.79371  0.47797  0.98336  1.0000
  C   C158      1.0  0.79372  0.49403  0.93637  1.0000
  H   H41       1.0  0.79374  0.52805  0.91818  1.0000
  O   O49       1.0  0.79375  0.54173  0.03281  1.0000
  O   O50       1.0  0.79372  0.51122  0.12208  1.0000
  H   H42       1.0  0.79370  0.47186  0.08263  1.0000
  O   O51       1.0  0.79370  0.45819  0.96801  1.0000
  O   O52       1.0  0.79372  0.48869  0.87874  1.0000
  C   C159      1.0  0.23474  0.04295  0.70278  1.0000
  C   C160      1.0  0.22889  0.04293  0.76688  1.0000
  C   C161      1.0  0.24501  0.04291  0.81369  1.0000
  C   C162      1.0  0.26698  0.04291  0.79640  1.0000
  C   C163      1.0  0.27283  0.04293  0.73230  1.0000
  C   C164      1.0  0.25671  0.04295  0.68549  1.0000
  H   H43       1.0  0.22264  0.04297  0.66767  1.0000
  O   O53       1.0  0.20911  0.04293  0.78244  1.0000
  O   O54       1.0  0.23975  0.04288  0.87138  1.0000
  H   H44       1.0  0.27907  0.04289  0.83151  1.0000
  O   O55       1.0  0.29260  0.04293  0.71674  1.0000
  O   O56       1.0  0.26197  0.04298  0.62780  1.0000
  C   C165      1.0  0.70803  0.51607  0.54742  1.0000
  C   C166      1.0  0.70805  0.52200  0.48338  1.0000
  C   C167      1.0  0.70806  0.50594  0.43640  1.0000
  C   C168      1.0  0.70806  0.48396  0.45344  1.0000
  C   C169      1.0  0.70804  0.47803  0.51748  1.0000
  C   C170      1.0  0.70802  0.49409  0.56447  1.0000
  H   H45       1.0  0.70801  0.52812  0.58266  1.0000
  O   O57       1.0  0.70805  0.54179  0.46804  1.0000
  O   O58       1.0  0.70808  0.51128  0.37876  1.0000
  H   H46       1.0  0.70807  0.47192  0.41820  1.0000
  O   O59       1.0  0.70803  0.45825  0.53282  1.0000
  O   O60       1.0  0.70800  0.48875  0.62210  1.0000
  C   C171      1.0  0.23479  0.95703  0.29641  1.0000
  C   C172      1.0  0.25677  0.95705  0.31368  1.0000
  C   C173      1.0  0.27288  0.95706  0.26686  1.0000
  C   C174      1.0  0.26703  0.95705  0.20276  1.0000
  C   C175      1.0  0.24506  0.95704  0.18549  1.0000
  C   C176      1.0  0.22894  0.95703  0.23232  1.0000
  H   H47       1.0  0.22271  0.95702  0.33153  1.0000
  O   O61       1.0  0.26203  0.95705  0.37137  1.0000
  O   O62       1.0  0.29266  0.95707  0.28240  1.0000
  H   H48       1.0  0.27912  0.95706  0.16764  1.0000
  O   O63       1.0  0.23979  0.95703  0.12781  1.0000
  O   O64       1.0  0.20916  0.95701  0.21678  1.0000
  C   C177      1.0  0.70802  0.98394  0.54680  1.0000
  C   C178      1.0  0.70802  0.97800  0.48276  1.0000
  C   C179      1.0  0.70804  0.99406  0.43577  1.0000
  C   C180      1.0  0.70805  0.01604  0.45282  1.0000
  C   C181      1.0  0.70805  0.02197  0.51685  1.0000
  C   C182      1.0  0.70803  0.00592  0.56384  1.0000
  H   H49       1.0  0.70801  0.97189  0.58204  1.0000
  O   O65       1.0  0.70801  0.95822  0.46742  1.0000
  O   O66       1.0  0.70804  0.98872  0.37814  1.0000
  H   H50       1.0  0.70806  0.02809  0.41758  1.0000
  O   O67       1.0  0.70806  0.04176  0.53220  1.0000
  O   O68       1.0  0.70803  0.01126  0.62148  1.0000
  C   C183      1.0  0.23475  0.45702  0.70335  1.0000
  C   C184      1.0  0.25673  0.45703  0.68610  1.0000
  C   C185      1.0  0.27284  0.45705  0.73294  1.0000
  C   C186      1.0  0.26698  0.45705  0.79703  1.0000
  C   C187      1.0  0.24500  0.45704  0.81428  1.0000
  C   C188      1.0  0.22889  0.45702  0.76744  1.0000
  H   H51       1.0  0.22267  0.45701  0.66822  1.0000
  O   O69       1.0  0.26200  0.45703  0.62842  1.0000
  O   O70       1.0  0.29261  0.45706  0.71742  1.0000
  H   H52       1.0  0.27906  0.45706  0.83216  1.0000
  O   O71       1.0  0.23973  0.45704  0.87196  1.0000
  O   O72       1.0  0.20911  0.45701  0.78296  1.0000
  C   C189      1.0  0.79369  0.98391  0.95282  1.0000
  C   C190      1.0  0.79368  0.97797  0.01685  1.0000
  C   C191      1.0  0.79367  0.99403  0.06385  1.0000
  C   C192      1.0  0.79366  0.01601  0.04682  1.0000
  C   C193      1.0  0.79367  0.02194  0.98279  1.0000
  C   C194      1.0  0.79369  0.00589  0.93579  1.0000
  H   H53       1.0  0.79371  0.97187  0.91757  1.0000
  O   O73       1.0  0.79369  0.95819  0.03218  1.0000
  O   O74       1.0  0.79366  0.98869  0.12148  1.0000
  H   H54       1.0  0.79365  0.02805  0.08207  1.0000
  O   O75       1.0  0.79366  0.04173  0.96746  1.0000
  O   O76       1.0  0.79370  0.01123  0.87816  1.0000
  C   C195      1.0  0.26696  0.54293  0.20339  1.0000
  C   C196      1.0  0.24499  0.54291  0.18612  1.0000
  C   C197      1.0  0.22887  0.54290  0.23295  1.0000
  C   C198      1.0  0.23473  0.54290  0.29705  1.0000
  C   C199      1.0  0.25670  0.54291  0.31431  1.0000
  C   C200      1.0  0.27281  0.54293  0.26748  1.0000
  H   H55       1.0  0.27905  0.54294  0.16827  1.0000
  O   O77       1.0  0.23972  0.54291  0.12844  1.0000
  O   O78       1.0  0.20909  0.54289  0.21741  1.0000
  H   H56       1.0  0.22264  0.54289  0.33217  1.0000
  O   O79       1.0  0.26197  0.54291  0.37200  1.0000
  O   O80       1.0  0.29259  0.54294  0.28302  1.0000
  C   C201      1.0  0.29369  0.01607  0.45259  1.0000
  C   C202      1.0  0.29371  0.99409  0.43554  1.0000
  C   C203      1.0  0.29372  0.97803  0.48253  1.0000
  C   C204      1.0  0.29372  0.98396  0.54656  1.0000
  C   C205      1.0  0.29370  0.00595  0.56361  1.0000
  C   C206      1.0  0.29369  0.02200  0.51662  1.0000
  H   H57       1.0  0.29368  0.02811  0.41735  1.0000
  O   O81       1.0  0.29372  0.98875  0.37791  1.0000
  O   O82       1.0  0.29374  0.95825  0.46718  1.0000
  H   H58       1.0  0.29373  0.97192  0.58181  1.0000
  O   O83       1.0  0.29369  0.01128  0.62125  1.0000
  O   O84       1.0  0.29367  0.04179  0.53197  1.0000
  C   C207      1.0  0.76703  0.54296  0.29725  1.0000
  C   C208      1.0  0.74505  0.54295  0.31452  1.0000
  C   C209      1.0  0.72894  0.54293  0.26769  1.0000
  C   C210      1.0  0.73479  0.54291  0.20360  1.0000
  C   C211      1.0  0.75676  0.54291  0.18633  1.0000
  C   C212      1.0  0.77288  0.54293  0.23315  1.0000
  H   H59       1.0  0.77912  0.54297  0.33237  1.0000
  O   O85       1.0  0.73979  0.54297  0.37221  1.0000
  O   O86       1.0  0.70916  0.54293  0.28324  1.0000
  H   H60       1.0  0.72270  0.54289  0.16848  1.0000
  O   O87       1.0  0.76203  0.54289  0.12864  1.0000
  O   O88       1.0  0.79266  0.54294  0.21761  1.0000
  C   C213      1.0  0.20804  0.98390  0.95261  1.0000
  C   C214      1.0  0.20806  0.97797  0.01665  1.0000
  C   C215      1.0  0.20808  0.99403  0.06364  1.0000
  C   C216      1.0  0.20808  0.01601  0.04658  1.0000
  C   C217      1.0  0.20807  0.02194  0.98255  1.0000
  C   C218      1.0  0.20805  0.00588  0.93556  1.0000
  H   H61       1.0  0.20803  0.97186  0.91737  1.0000
  O   O89       1.0  0.20806  0.95819  0.03200  1.0000
  O   O90       1.0  0.20809  0.98870  0.12127  1.0000
  H   H62       1.0  0.20810  0.02806  0.08182  1.0000
  O   O91       1.0  0.20807  0.04173  0.96720  1.0000
  O   O92       1.0  0.20803  0.01122  0.87793  1.0000
  C   C219      1.0  0.76697  0.45702  0.70358  1.0000
  C   C220      1.0  0.74500  0.45704  0.68633  1.0000
  C   C221      1.0  0.72888  0.45706  0.73317  1.0000
  C   C222      1.0  0.73474  0.45705  0.79726  1.0000
  C   C223      1.0  0.75672  0.45704  0.81451  1.0000
  C   C224      1.0  0.77283  0.45702  0.76767  1.0000
  H   H63       1.0  0.77905  0.45701  0.66845  1.0000
  O   O93       1.0  0.73972  0.45705  0.62864  1.0000
  O   O94       1.0  0.70911  0.45708  0.71764  1.0000
  H   H64       1.0  0.72266  0.45707  0.83239  1.0000
  O   O95       1.0  0.76199  0.45703  0.87219  1.0000
  O   O96       1.0  0.79261  0.45700  0.78319  1.0000
  C   C225      1.0  0.18538  0.58315  0.12476  1.0000
  C   C226      1.0  0.16769  0.56546  0.12476  1.0000
  C   C227      1.0  0.14352  0.57190  0.12458  1.0000
  C   C228      1.0  0.13697  0.59605  0.12438  1.0000
  C   C229      1.0  0.15469  0.61381  0.12438  1.0000
  C   C230      1.0  0.17886  0.60730  0.12456  1.0000
  O   O97       1.0  0.20909  0.57683  0.12494  1.0000
  O   O98       1.0  0.17408  0.54178  0.12495  1.0000
  H   H65       1.0  0.13046  0.55878  0.12458  1.0000
  O   O99       1.0  0.11320  0.60230  0.12420  1.0000
  O   O100      1.0  0.14839  0.63757  0.12419  1.0000
  H   H66       1.0  0.19195  0.62040  0.12456  1.0000
  Cu  Cu1       1.0  0.11276  0.63788  0.12398  1.0000
  C   C231      1.0  0.68538  0.91679  0.37526  1.0000
  C   C232      1.0  0.66770  0.93448  0.37525  1.0000
  C   C233      1.0  0.64353  0.92804  0.37543  1.0000
  C   C234      1.0  0.63697  0.90390  0.37560  1.0000
  C   C235      1.0  0.65469  0.88613  0.37561  1.0000
  C   C236      1.0  0.67886  0.89264  0.37544  1.0000
  O   O101      1.0  0.70910  0.92311  0.37509  1.0000
  O   O102      1.0  0.67409  0.95816  0.37508  1.0000
  H   H67       1.0  0.63047  0.94116  0.37542  1.0000
  O   O103      1.0  0.61320  0.89765  0.37577  1.0000
  O   O104      1.0  0.64839  0.86237  0.37578  1.0000
  H   H68       1.0  0.69195  0.87954  0.37544  1.0000
  Cu  Cu2       1.0  0.61276  0.86207  0.37598  1.0000
  C   C237      1.0  0.33399  0.43443  0.62478  1.0000
  C   C238      1.0  0.31630  0.41676  0.62476  1.0000
  C   C239      1.0  0.32274  0.39259  0.62458  1.0000
  C   C240      1.0  0.34690  0.38605  0.62441  1.0000
  C   C241      1.0  0.36466  0.40376  0.62443  1.0000
  C   C242      1.0  0.35815  0.42792  0.62461  1.0000
  O   O105      1.0  0.32766  0.45814  0.62495  1.0000
  O   O106      1.0  0.29260  0.42314  0.62493  1.0000
  H   H69       1.0  0.30962  0.37954  0.62457  1.0000
  O   O107      1.0  0.35315  0.36229  0.62424  1.0000
  O   O108      1.0  0.38843  0.39746  0.62426  1.0000
  H   H70       1.0  0.37125  0.44101  0.62462  1.0000
  Cu  Cu3       1.0  0.38874  0.36185  0.62404  1.0000
  C   C243      1.0  0.83396  0.06553  0.87529  1.0000
  C   C244      1.0  0.81627  0.08321  0.87530  1.0000
  C   C245      1.0  0.82271  0.10737  0.87549  1.0000
  C   C246      1.0  0.84687  0.11392  0.87567  1.0000
  C   C247      1.0  0.86463  0.09620  0.87566  1.0000
  C   C248      1.0  0.85812  0.07204  0.87547  1.0000
  O   O109      1.0  0.82764  0.04182  0.87511  1.0000
  O   O110      1.0  0.79258  0.07682  0.87513  1.0000
  H   H71       1.0  0.80959  0.12042  0.87550  1.0000
  O   O111      1.0  0.85312  0.13768  0.87585  1.0000
  O   O112      1.0  0.88840  0.10250  0.87583  1.0000
  H   H72       1.0  0.87122  0.05896  0.87547  1.0000
  Cu  Cu4       1.0  0.88871  0.13812  0.87606  1.0000
  C   C249      1.0  0.16774  0.43441  0.87557  1.0000
  C   C250      1.0  0.18543  0.41673  0.87557  1.0000
  C   C251      1.0  0.17899  0.39257  0.87573  1.0000
  C   C252      1.0  0.15483  0.38602  0.87589  1.0000
  C   C253      1.0  0.13707  0.40374  0.87589  1.0000
  C   C254      1.0  0.14358  0.42790  0.87573  1.0000
  O   O113      1.0  0.17407  0.45812  0.87541  1.0000
  O   O114      1.0  0.20912  0.42312  0.87542  1.0000
  H   H73       1.0  0.19211  0.37951  0.87574  1.0000
  O   O115      1.0  0.14858  0.36226  0.87605  1.0000
  O   O116      1.0  0.11330  0.39744  0.87604  1.0000
  H   H74       1.0  0.13048  0.44098  0.87573  1.0000
  Cu  Cu5       1.0  0.11298  0.36182  0.87623  1.0000
  C   C255      1.0  0.83395  0.93440  0.12441  1.0000
  C   C256      1.0  0.81626  0.91672  0.12441  1.0000
  C   C257      1.0  0.82271  0.89255  0.12425  1.0000
  C   C258      1.0  0.84687  0.88601  0.12409  1.0000
  C   C259      1.0  0.86463  0.90373  0.12410  1.0000
  C   C260      1.0  0.85812  0.92789  0.12426  1.0000
  O   O117      1.0  0.82763  0.95810  0.12457  1.0000
  O   O118      1.0  0.79257  0.92310  0.12456  1.0000
  H   H75       1.0  0.80959  0.87950  0.12424  1.0000
  O   O119      1.0  0.85313  0.86225  0.12393  1.0000
  O   O120      1.0  0.88840  0.89743  0.12395  1.0000
  H   H76       1.0  0.87122  0.94097  0.12426  1.0000
  Cu  Cu6       1.0  0.88872  0.86182  0.12376  1.0000
  C   C261      1.0  0.33396  0.56554  0.37558  1.0000
  C   C262      1.0  0.31626  0.58322  0.37559  1.0000
  C   C263      1.0  0.32271  0.60738  0.37574  1.0000
  C   C264      1.0  0.34687  0.61393  0.37588  1.0000
  C   C265      1.0  0.36463  0.59621  0.37588  1.0000
  C   C266      1.0  0.35812  0.57205  0.37573  1.0000
  O   O121      1.0  0.32763  0.54183  0.37544  1.0000
  O   O122      1.0  0.29257  0.57684  0.37545  1.0000
  H   H77       1.0  0.30959  0.62044  0.37575  1.0000
  O   O123      1.0  0.35312  0.63769  0.37603  1.0000
  O   O124      1.0  0.38840  0.60251  0.37601  1.0000
  H   H78       1.0  0.37122  0.55897  0.37572  1.0000
  Cu  Cu7       1.0  0.38871  0.63813  0.37619  1.0000
  C   C267      1.0  0.66777  0.06555  0.62443  1.0000
  C   C268      1.0  0.68547  0.08323  0.62443  1.0000
  C   C269      1.0  0.67902  0.10739  0.62428  1.0000
  C   C270      1.0  0.65487  0.11394  0.62414  1.0000
  C   C271      1.0  0.63710  0.09622  0.62414  1.0000
  C   C272      1.0  0.64361  0.07206  0.62428  1.0000
  O   O125      1.0  0.67410  0.04184  0.62457  1.0000
  O   O126      1.0  0.70916  0.07684  0.62457  1.0000
  H   H79       1.0  0.69215  0.12044  0.62428  1.0000
  O   O127      1.0  0.64861  0.13770  0.62400  1.0000
  O   O128      1.0  0.61333  0.10252  0.62400  1.0000
  H   H80       1.0  0.63051  0.05898  0.62429  1.0000
  Cu  Cu8       1.0  0.61302  0.13814  0.62383  1.0000
  C   C273      1.0  0.83398  0.43440  0.87566  1.0000
  C   C274      1.0  0.81629  0.41672  0.87567  1.0000
  C   C275      1.0  0.82274  0.39256  0.87572  1.0000
  C   C276      1.0  0.84689  0.38601  0.87576  1.0000
  C   C277      1.0  0.86466  0.40372  0.87575  1.0000
  C   C278      1.0  0.85815  0.42789  0.87570  1.0000
  O   O129      1.0  0.82766  0.45810  0.87561  1.0000
  O   O130      1.0  0.79260  0.42310  0.87563  1.0000
  H   H81       1.0  0.80961  0.37950  0.87573  1.0000
  O   O131      1.0  0.85315  0.36225  0.87581  1.0000
  O   O132      1.0  0.88843  0.39743  0.87579  1.0000
  H   H82       1.0  0.87125  0.44097  0.87570  1.0000
  Cu  Cu9       1.0  0.88874  0.36181  0.87586  1.0000
  C   C279      1.0  0.31632  0.08321  0.62434  1.0000
  C   C280      1.0  0.33400  0.06552  0.62433  1.0000
  C   C281      1.0  0.35817  0.07195  0.62430  1.0000
  C   C282      1.0  0.36473  0.09610  0.62427  1.0000
  C   C283      1.0  0.34701  0.11386  0.62428  1.0000
  C   C284      1.0  0.32284  0.10736  0.62431  1.0000
  O   O133      1.0  0.29260  0.07689  0.62437  1.0000
  O   O134      1.0  0.32760  0.04183  0.62436  1.0000
  H   H83       1.0  0.37123  0.05883  0.62430  1.0000
  O   O135      1.0  0.38850  0.10234  0.62424  1.0000
  O   O136      1.0  0.35332  0.13762  0.62425  1.0000
  H   H84       1.0  0.30976  0.12046  0.62431  1.0000
  Cu  Cu10      1.0  0.38895  0.13792  0.62421  1.0000
  C   C285      1.0  0.66779  0.56557  0.37567  1.0000
  C   C286      1.0  0.68548  0.58325  0.37568  1.0000
  C   C287      1.0  0.67903  0.60741  0.37572  1.0000
  C   C288      1.0  0.65488  0.61395  0.37575  1.0000
  C   C289      1.0  0.63711  0.59624  0.37574  1.0000
  C   C290      1.0  0.64363  0.57208  0.37570  1.0000
  O   O137      1.0  0.67412  0.54186  0.37564  1.0000
  O   O138      1.0  0.70917  0.57686  0.37565  1.0000
  H   H85       1.0  0.69216  0.62047  0.37572  1.0000
  O   O139      1.0  0.64862  0.63771  0.37578  1.0000
  O   O140      1.0  0.61334  0.60253  0.37576  1.0000
  H   H86       1.0  0.63053  0.55899  0.37569  1.0000
  Cu  Cu11      1.0  0.61303  0.63814  0.37581  1.0000
  C   C291      1.0  0.16780  0.93441  0.12434  1.0000
  C   C292      1.0  0.18549  0.91673  0.12433  1.0000
  C   C293      1.0  0.17904  0.89257  0.12429  1.0000
  C   C294      1.0  0.15488  0.88602  0.12424  1.0000
  C   C295      1.0  0.13712  0.90374  0.12425  1.0000
  C   C296      1.0  0.14364  0.92790  0.12429  1.0000
  O   O141      1.0  0.17413  0.95812  0.12438  1.0000
  O   O142      1.0  0.20918  0.92311  0.12437  1.0000
  H   H87       1.0  0.19216  0.87951  0.12428  1.0000
  O   O143      1.0  0.14863  0.86226  0.12420  1.0000
  O   O144      1.0  0.11335  0.89745  0.12421  1.0000
  H   H88       1.0  0.13054  0.94099  0.12430  1.0000
  Cu  Cu12      1.0  0.11303  0.86183  0.12415  1.0000
  C   C297      1.0  0.83401  0.56553  0.12502  1.0000
  C   C298      1.0  0.81632  0.58320  0.12501  1.0000
  C   C299      1.0  0.82276  0.60736  0.12490  1.0000
  C   C300      1.0  0.84691  0.61392  0.12480  1.0000
  C   C301      1.0  0.86468  0.59620  0.12481  1.0000
  C   C302      1.0  0.85818  0.57204  0.12492  1.0000
  O   O145      1.0  0.82769  0.54182  0.12512  1.0000
  O   O146      1.0  0.79263  0.57681  0.12511  1.0000
  H   H89       1.0  0.80963  0.62042  0.12490  1.0000
  O   O147      1.0  0.85316  0.63768  0.12469  1.0000
  O   O148      1.0  0.88845  0.60251  0.12471  1.0000
  H   H90       1.0  0.87128  0.55896  0.12492  1.0000
  Cu  Cu13      1.0  0.88876  0.63812  0.12458  1.0000
  C   C303      1.0  0.16777  0.06551  0.87500  1.0000
  C   C304      1.0  0.18546  0.08319  0.87500  1.0000
  C   C305      1.0  0.17902  0.10735  0.87511  1.0000
  C   C306      1.0  0.15486  0.11390  0.87521  1.0000
  C   C307      1.0  0.13709  0.09619  0.87521  1.0000
  C   C308      1.0  0.14361  0.07203  0.87510  1.0000
  O   O149      1.0  0.17409  0.04180  0.87490  1.0000
  O   O150      1.0  0.20915  0.07680  0.87490  1.0000
  H   H91       1.0  0.19214  0.12041  0.87511  1.0000
  O   O151      1.0  0.14861  0.13766  0.87531  1.0000
  O   O152      1.0  0.11333  0.10249  0.87531  1.0000
  H   H92       1.0  0.13050  0.05894  0.87510  1.0000
  Cu  Cu14      1.0  0.11302  0.13810  0.87543  1.0000
  C   C309      1.0  0.66774  0.43445  0.62505  1.0000
  C   C310      1.0  0.68543  0.41678  0.62504  1.0000
  C   C311      1.0  0.67899  0.39261  0.62494  1.0000
  C   C312      1.0  0.65483  0.38606  0.62485  1.0000
  C   C313      1.0  0.63706  0.40378  0.62487  1.0000
  C   C314      1.0  0.64358  0.42794  0.62497  1.0000
  O   O153      1.0  0.67406  0.45816  0.62515  1.0000
  O   O154      1.0  0.70912  0.42316  0.62512  1.0000
  H   H93       1.0  0.69211  0.37956  0.62493  1.0000
  O   O155      1.0  0.64858  0.36230  0.62475  1.0000
  O   O156      1.0  0.61330  0.39748  0.62478  1.0000
  H   H94       1.0  0.63047  0.44102  0.62498  1.0000
  Cu  Cu15      1.0  0.61299  0.36186  0.62466  1.0000
  C   C315      1.0  0.33401  0.93445  0.37496  1.0000
  C   C316      1.0  0.31631  0.91677  0.37497  1.0000
  C   C317      1.0  0.32276  0.89261  0.37506  1.0000
  C   C318      1.0  0.34691  0.88606  0.37516  1.0000
  C   C319      1.0  0.36468  0.90377  0.37515  1.0000
  C   C320      1.0  0.35817  0.92793  0.37506  1.0000
  O   O157      1.0  0.32769  0.95816  0.37487  1.0000
  O   O158      1.0  0.29262  0.92316  0.37488  1.0000
  H   H95       1.0  0.30963  0.87956  0.37507  1.0000
  O   O159      1.0  0.35316  0.86230  0.37525  1.0000
  O   O160      1.0  0.38845  0.89747  0.37525  1.0000
  H   H96       1.0  0.37127  0.94101  0.37505  1.0000
  Cu  Cu16      1.0  0.38875  0.86185  0.37536  1.0000
