data_image0
_chemical_formula_structural       Fe16C7NCNCNC3NCNC11NCNC7NHO2H2O2H2O2H2O2HNiC7NCNCNC3NCNC11NCNC7NHO2H2O2H2O2H2O2HNiC7NCNCNC3NCNC11NCNC7NHO2H2O2H2O2H2O2HNiC7NCNCNC3NCNC11NCNC7NHO2H2O2H2O2H2O2HNiC6HO2HO2C6HO2HO2C6HO2HO2C6HO2HO2C6HO2HO2C6HO2HO2C6HO2HO2C6HO2HO2C6HO2HO2C6HO2HO2C6HO2HO2C6HO2HO2C6HO2HO2C6HO2HO2C6HO2HO2C6HO2HO2
_chemical_formula_sum              "Fe16 C224 N32 H64 O96 Ni4"
_cell_length_a       37.7176
_cell_length_b       38.0217
_cell_length_c       21.1122
_cell_angle_alpha    89.9901
_cell_angle_beta     89.9995
_cell_angle_gamma    89.9969

_space_group_name_H-M_alt    "P 1"
_space_group_IT_number       1

loop_
  _space_group_symop_operation_xyz
  'x, y, z'

loop_
  _atom_site_type_symbol
  _atom_site_label
  _atom_site_symmetry_multiplicity
  _atom_site_fract_x
  _atom_site_fract_y
  _atom_site_fract_z
  _atom_site_occupancy
  Fe  Fe1       1.0  0.18215  0.57039  0.12311  1.0000
  Fe  Fe2       1.0  0.68216  0.92960  0.37690  1.0000
  Fe  Fe3       1.0  0.32000  0.42959  0.62310  1.0000
  Fe  Fe4       1.0  0.82000  0.07040  0.87684  1.0000
  Fe  Fe5       1.0  0.18212  0.42962  0.87671  1.0000
  Fe  Fe6       1.0  0.82002  0.92963  0.12329  1.0000
  Fe  Fe7       1.0  0.32005  0.57037  0.37667  1.0000
  Fe  Fe8       1.0  0.68213  0.07037  0.62326  1.0000
  Fe  Fe9       1.0  0.82004  0.42963  0.87676  1.0000
  Fe  Fe10      1.0  0.32004  0.07038  0.62326  1.0000
  Fe  Fe11      1.0  0.68214  0.57037  0.37672  1.0000
  Fe  Fe12      1.0  0.18215  0.92960  0.12329  1.0000
  Fe  Fe13      1.0  0.82003  0.57039  0.12314  1.0000
  Fe  Fe14      1.0  0.18218  0.07041  0.87690  1.0000
  Fe  Fe15      1.0  0.68217  0.42960  0.62314  1.0000
  Fe  Fe16      1.0  0.31999  0.92957  0.37694  1.0000
  C   C1        1.0  0.86392  0.82804  0.11801  1.0000
  C   C2        1.0  0.85351  0.86743  0.11818  1.0000
  C   C3        1.0  0.88268  0.89637  0.11842  1.0000
  C   C4        1.0  0.92240  0.88607  0.11852  1.0000
  C   C5        1.0  0.93141  0.84679  0.11837  1.0000
  C   C6        1.0  0.90351  0.81912  0.11807  1.0000
  C   C7        1.0  0.92210  0.78338  0.11798  1.0000
  N   N1        1.0  0.96243  0.78834  0.11820  1.0000
  C   C8        1.0  0.96744  0.82835  0.11844  1.0000
  N   N2        1.0  0.00107  0.84803  0.11875  1.0000
  C   C9        1.0  0.03471  0.82835  0.11870  1.0000
  N   N3        1.0  0.03972  0.78834  0.11846  1.0000
  C   C10       1.0  0.08005  0.78337  0.11836  1.0000
  C   C11       1.0  0.09864  0.81910  0.11858  1.0000
  C   C12       1.0  0.07075  0.84679  0.11876  1.0000
  N   N4        1.0  0.03972  0.71168  0.11829  1.0000
  C   C13       1.0  0.08005  0.71664  0.11810  1.0000
  N   N5        1.0  0.09989  0.75000  0.11802  1.0000
  C   C14       1.0  0.09864  0.68090  0.11821  1.0000
  C   C15       1.0  0.07074  0.65323  0.11847  1.0000
  C   C16       1.0  0.03472  0.67167  0.11856  1.0000
  C   C17       1.0  0.07978  0.88606  0.11889  1.0000
  C   C18       1.0  0.11949  0.89635  0.11888  1.0000
  C   C19       1.0  0.14865  0.86740  0.11882  1.0000
  C   C20       1.0  0.13823  0.82802  0.11862  1.0000
  C   C21       1.0  0.07974  0.61395  0.11856  1.0000
  C   C22       1.0  0.11945  0.60364  0.11836  1.0000
  C   C23       1.0  0.14862  0.63257  0.11815  1.0000
  C   C24       1.0  0.13823  0.67196  0.11809  1.0000
  N   N6        1.0  0.96244  0.71169  0.11836  1.0000
  C   C25       1.0  0.96745  0.67168  0.11864  1.0000
  N   N7        1.0  0.00108  0.65200  0.11885  1.0000
  C   C26       1.0  0.93143  0.65323  0.11861  1.0000
  C   C27       1.0  0.90352  0.68090  0.11831  1.0000
  C   C28       1.0  0.92211  0.71665  0.11812  1.0000
  C   C29       1.0  0.86394  0.67196  0.11831  1.0000
  C   C30       1.0  0.85356  0.63256  0.11859  1.0000
  C   C31       1.0  0.88274  0.60363  0.11877  1.0000
  C   C32       1.0  0.92244  0.61396  0.11879  1.0000
  N   N8        1.0  0.90227  0.75001  0.11781  1.0000
  H   H1        1.0  0.84456  0.80820  0.11785  1.0000
  O   O1        1.0  0.82025  0.87638  0.11813  1.0000
  O   O2        1.0  0.87366  0.92937  0.11852  1.0000
  H   H2        1.0  0.94240  0.90527  0.11870  1.0000
  H   H3        1.0  0.05978  0.90528  0.11896  1.0000
  O   O3        1.0  0.12852  0.92934  0.11892  1.0000
  O   O4        1.0  0.18192  0.87633  0.11893  1.0000
  H   H4        1.0  0.15759  0.80816  0.11854  1.0000
  H   H5        1.0  0.05974  0.59475  0.11873  1.0000
  O   O5        1.0  0.12846  0.57064  0.11833  1.0000
  O   O6        1.0  0.18188  0.62362  0.11802  1.0000
  H   H6        1.0  0.15760  0.69180  0.11796  1.0000
  H   H7        1.0  0.84457  0.69180  0.11816  1.0000
  O   O7        1.0  0.82030  0.62361  0.11869  1.0000
  O   O8        1.0  0.87373  0.57063  0.11891  1.0000
  H   H8        1.0  0.94246  0.59476  0.11895  1.0000
  Ni  Ni1       1.0  0.00107  0.75002  0.11822  1.0000
  C   C33       1.0  0.63825  0.82803  0.38211  1.0000
  C   C34       1.0  0.64865  0.86741  0.38198  1.0000
  C   C35       1.0  0.61947  0.89636  0.38177  1.0000
  C   C36       1.0  0.57976  0.88605  0.38165  1.0000
  C   C37       1.0  0.57075  0.84678  0.38177  1.0000
  C   C38       1.0  0.59865  0.81910  0.38203  1.0000
  C   C39       1.0  0.58006  0.78336  0.38208  1.0000
  N   N9        1.0  0.53973  0.78833  0.38187  1.0000
  C   C40       1.0  0.53473  0.82834  0.38167  1.0000
  N   N10       1.0  0.50109  0.84802  0.38138  1.0000
  C   C41       1.0  0.46745  0.82834  0.38141  1.0000
  N   N11       1.0  0.46245  0.78833  0.38160  1.0000
  C   C42       1.0  0.42212  0.78336  0.38170  1.0000
  C   C43       1.0  0.40352  0.81909  0.38151  1.0000
  C   C44       1.0  0.43141  0.84677  0.38136  1.0000
  N   N12       1.0  0.46246  0.71167  0.38169  1.0000
  C   C45       1.0  0.42212  0.71663  0.38188  1.0000
  N   N13       1.0  0.40228  0.74999  0.38199  1.0000
  C   C46       1.0  0.40354  0.68088  0.38173  1.0000
  C   C47       1.0  0.43144  0.65321  0.38145  1.0000
  C   C48       1.0  0.46746  0.67166  0.38138  1.0000
  C   C49       1.0  0.42238  0.88604  0.38128  1.0000
  C   C50       1.0  0.38267  0.89633  0.38129  1.0000
  C   C51       1.0  0.35351  0.86739  0.38133  1.0000
  C   C52       1.0  0.36393  0.82800  0.38148  1.0000
  C   C53       1.0  0.42244  0.61394  0.38131  1.0000
  C   C54       1.0  0.38274  0.60362  0.38150  1.0000
  C   C55       1.0  0.35357  0.63256  0.38174  1.0000
  C   C56       1.0  0.36395  0.67194  0.38184  1.0000
  N   N14       1.0  0.53973  0.71167  0.38163  1.0000
  C   C57       1.0  0.53473  0.67166  0.38130  1.0000
  N   N15       1.0  0.50110  0.65198  0.38107  1.0000
  C   C58       1.0  0.57075  0.65322  0.38131  1.0000
  C   C59       1.0  0.59865  0.68089  0.38164  1.0000
  C   C60       1.0  0.58006  0.71663  0.38187  1.0000
  C   C61       1.0  0.63824  0.67194  0.38163  1.0000
  C   C62       1.0  0.64862  0.63255  0.38131  1.0000
  C   C63       1.0  0.61944  0.60362  0.38110  1.0000
  C   C64       1.0  0.57974  0.61394  0.38109  1.0000
  N   N16       1.0  0.59990  0.75000  0.38222  1.0000
  H   H9        1.0  0.65761  0.80818  0.38225  1.0000
  O   O9        1.0  0.68191  0.87636  0.38204  1.0000
  O   O10       1.0  0.62850  0.92935  0.38170  1.0000
  H   H10       1.0  0.55976  0.90525  0.38150  1.0000
  H   H11       1.0  0.44237  0.90526  0.38123  1.0000
  O   O11       1.0  0.37363  0.92933  0.38129  1.0000
  O   O12       1.0  0.32024  0.87631  0.38122  1.0000
  H   H12       1.0  0.34458  0.80815  0.38154  1.0000
  H   H13       1.0  0.44245  0.59474  0.38113  1.0000
  O   O13       1.0  0.37373  0.57062  0.38149  1.0000
  O   O14       1.0  0.32030  0.62361  0.38186  1.0000
  H   H14       1.0  0.34458  0.69178  0.38199  1.0000
  H   H15       1.0  0.65761  0.69178  0.38181  1.0000
  O   O15       1.0  0.68189  0.62359  0.38120  1.0000
  O   O16       1.0  0.62845  0.57061  0.38093  1.0000
  H   H16       1.0  0.55973  0.59474  0.38091  1.0000
  Ni  Ni2       1.0  0.50110  0.75000  0.38181  1.0000
  C   C65       1.0  0.63825  0.32802  0.61909  1.0000
  C   C66       1.0  0.64865  0.36741  0.61892  1.0000
  C   C67       1.0  0.61948  0.39635  0.61868  1.0000
  C   C68       1.0  0.57977  0.38605  0.61857  1.0000
  C   C69       1.0  0.57076  0.34677  0.61872  1.0000
  C   C70       1.0  0.59866  0.31910  0.61901  1.0000
  C   C71       1.0  0.58006  0.28336  0.61910  1.0000
  N   N17       1.0  0.53973  0.28833  0.61888  1.0000
  C   C72       1.0  0.53473  0.32834  0.61864  1.0000
  N   N18       1.0  0.50109  0.34802  0.61833  1.0000
  C   C73       1.0  0.46745  0.32834  0.61838  1.0000
  N   N19       1.0  0.46245  0.28833  0.61861  1.0000
  C   C74       1.0  0.42212  0.28336  0.61871  1.0000
  C   C75       1.0  0.40353  0.31910  0.61849  1.0000
  C   C76       1.0  0.43142  0.34678  0.61831  1.0000
  N   N20       1.0  0.46245  0.21167  0.61878  1.0000
  C   C77       1.0  0.42212  0.21663  0.61896  1.0000
  N   N21       1.0  0.40228  0.25000  0.61904  1.0000
  C   C78       1.0  0.40353  0.18089  0.61885  1.0000
  C   C79       1.0  0.43143  0.15322  0.61859  1.0000
  C   C80       1.0  0.46746  0.17166  0.61851  1.0000
  C   C81       1.0  0.42239  0.38605  0.61819  1.0000
  C   C82       1.0  0.38268  0.39634  0.61819  1.0000
  C   C83       1.0  0.35352  0.36740  0.61825  1.0000
  C   C84       1.0  0.36393  0.32801  0.61845  1.0000
  C   C85       1.0  0.42243  0.11395  0.61849  1.0000
  C   C86       1.0  0.38273  0.10363  0.61869  1.0000
  C   C87       1.0  0.35356  0.13257  0.61890  1.0000
  C   C88       1.0  0.36394  0.17195  0.61897  1.0000
  N   N22       1.0  0.53973  0.21167  0.61872  1.0000
  C   C89       1.0  0.53472  0.17166  0.61844  1.0000
  N   N23       1.0  0.50109  0.15198  0.61822  1.0000
  C   C90       1.0  0.57074  0.15321  0.61846  1.0000
  C   C91       1.0  0.59865  0.18088  0.61877  1.0000
  C   C92       1.0  0.58006  0.21663  0.61896  1.0000
  C   C93       1.0  0.63824  0.17194  0.61877  1.0000
  C   C94       1.0  0.64862  0.13254  0.61849  1.0000
  C   C95       1.0  0.61943  0.10361  0.61831  1.0000
  C   C96       1.0  0.57973  0.11394  0.61828  1.0000
  N   N24       1.0  0.59990  0.24999  0.61928  1.0000
  H   H17       1.0  0.65761  0.30818  0.61925  1.0000
  O   O17       1.0  0.68192  0.37635  0.61897  1.0000
  O   O18       1.0  0.62851  0.42935  0.61858  1.0000
  H   H18       1.0  0.55976  0.40525  0.61839  1.0000
  H   H19       1.0  0.44238  0.40527  0.61812  1.0000
  O   O19       1.0  0.37364  0.42934  0.61815  1.0000
  O   O20       1.0  0.32025  0.37633  0.61813  1.0000
  H   H20       1.0  0.34458  0.30816  0.61852  1.0000
  H   H21       1.0  0.44244  0.09474  0.61833  1.0000
  O   O21       1.0  0.37372  0.07063  0.61872  1.0000
  O   O22       1.0  0.32029  0.12362  0.61903  1.0000
  H   H22       1.0  0.34458  0.19179  0.61909  1.0000
  H   H23       1.0  0.65760  0.19177  0.61893  1.0000
  O   O23       1.0  0.68188  0.12358  0.61839  1.0000
  O   O24       1.0  0.62844  0.07061  0.61817  1.0000
  H   H24       1.0  0.55972  0.09474  0.61812  1.0000
  Ni  Ni3       1.0  0.50110  0.25000  0.61886  1.0000
  C   C97       1.0  0.86392  0.17197  0.88204  1.0000
  C   C98       1.0  0.85352  0.13258  0.88190  1.0000
  C   C99       1.0  0.88269  0.10364  0.88169  1.0000
  C   C100      1.0  0.92241  0.11395  0.88157  1.0000
  C   C101      1.0  0.93141  0.15322  0.88170  1.0000
  C   C102      1.0  0.90352  0.18090  0.88197  1.0000
  C   C103      1.0  0.92211  0.21663  0.88203  1.0000
  N   N25       1.0  0.96244  0.21167  0.88181  1.0000
  C   C104      1.0  0.96744  0.17166  0.88161  1.0000
  N   N26       1.0  0.00108  0.15198  0.88131  1.0000
  C   C105      1.0  0.03472  0.17165  0.88135  1.0000
  N   N27       1.0  0.03972  0.21166  0.88155  1.0000
  C   C106      1.0  0.08005  0.21663  0.88165  1.0000
  C   C107      1.0  0.09865  0.18090  0.88145  1.0000
  C   C108      1.0  0.07076  0.15322  0.88129  1.0000
  N   N28       1.0  0.03972  0.28832  0.88166  1.0000
  C   C109      1.0  0.08005  0.28337  0.88184  1.0000
  N   N29       1.0  0.09989  0.25000  0.88195  1.0000
  C   C110      1.0  0.09864  0.31911  0.88170  1.0000
  C   C111      1.0  0.07074  0.34678  0.88142  1.0000
  C   C112      1.0  0.03471  0.32833  0.88136  1.0000
  C   C113      1.0  0.07979  0.11395  0.88120  1.0000
  C   C114      1.0  0.11950  0.10365  0.88121  1.0000
  C   C115      1.0  0.14865  0.13260  0.88125  1.0000
  C   C116      1.0  0.13824  0.17198  0.88142  1.0000
  C   C117      1.0  0.07974  0.38605  0.88129  1.0000
  C   C118      1.0  0.11944  0.39637  0.88149  1.0000
  C   C119      1.0  0.14861  0.36743  0.88172  1.0000
  C   C120      1.0  0.13823  0.32804  0.88182  1.0000
  N   N30       1.0  0.96244  0.28832  0.88159  1.0000
  C   C121      1.0  0.96745  0.32833  0.88128  1.0000
  N   N31       1.0  0.00108  0.34801  0.88105  1.0000
  C   C122      1.0  0.93143  0.34678  0.88129  1.0000
  C   C123      1.0  0.90352  0.31911  0.88161  1.0000
  C   C124      1.0  0.92211  0.28337  0.88183  1.0000
  C   C125      1.0  0.86393  0.32806  0.88161  1.0000
  C   C126      1.0  0.85355  0.36745  0.88129  1.0000
  C   C127      1.0  0.88273  0.39638  0.88109  1.0000
  C   C128      1.0  0.92244  0.38606  0.88107  1.0000
  N   N32       1.0  0.90227  0.25000  0.88217  1.0000
  H   H25       1.0  0.84456  0.19182  0.88219  1.0000
  O   O25       1.0  0.82026  0.12364  0.88196  1.0000
  O   O26       1.0  0.87367  0.07064  0.88161  1.0000
  H   H26       1.0  0.94241  0.09474  0.88141  1.0000
  H   H27       1.0  0.05979  0.09473  0.88115  1.0000
  O   O27       1.0  0.12853  0.07066  0.88121  1.0000
  O   O28       1.0  0.18193  0.12367  0.88115  1.0000
  H   H28       1.0  0.15759  0.19184  0.88148  1.0000
  H   H29       1.0  0.05973  0.40526  0.88112  1.0000
  O   O29       1.0  0.12845  0.42937  0.88149  1.0000
  O   O30       1.0  0.18187  0.37638  0.88185  1.0000
  H   H30       1.0  0.15759  0.30821  0.88196  1.0000
  H   H31       1.0  0.84457  0.30822  0.88178  1.0000
  O   O31       1.0  0.82029  0.37641  0.88119  1.0000
  O   O32       1.0  0.87372  0.42938  0.88093  1.0000
  H   H32       1.0  0.94245  0.40525  0.88090  1.0000
  Ni  Ni4       1.0  0.00107  0.24999  0.88176  1.0000
  C   C129      1.0  0.18192  0.52559  0.95221  1.0000
  C   C130      1.0  0.18210  0.53574  0.01595  1.0000
  C   C131      1.0  0.18245  0.51015  0.06365  1.0000
  C   C132      1.0  0.18262  0.47443  0.04761  1.0000
  C   C133      1.0  0.18244  0.46428  0.98387  1.0000
  C   C134      1.0  0.18209  0.48986  0.93616  1.0000
  H   H33       1.0  0.18166  0.54478  0.91643  1.0000
  O   O33       1.0  0.18195  0.56789  0.03038  1.0000
  O   O34       1.0  0.18262  0.51929  0.12102  1.0000
  H   H34       1.0  0.18289  0.45524  0.08338  1.0000
  O   O35       1.0  0.18260  0.43213  0.96943  1.0000
  O   O36       1.0  0.18193  0.48073  0.87880  1.0000
  C   C135      1.0  0.77780  0.92982  0.29614  1.0000
  C   C136      1.0  0.78677  0.92965  0.23179  1.0000
  C   C137      1.0  0.76005  0.92932  0.18575  1.0000
  C   C138      1.0  0.72438  0.92914  0.20406  1.0000
  C   C139      1.0  0.71542  0.92931  0.26841  1.0000
  C   C140      1.0  0.74213  0.92964  0.31445  1.0000
  H   H35       1.0  0.79783  0.93007  0.33067  1.0000
  O   O37       1.0  0.81887  0.92981  0.21532  1.0000
  O   O38       1.0  0.76812  0.92917  0.12784  1.0000
  H   H36       1.0  0.70435  0.92889  0.16953  1.0000
  O   O39       1.0  0.68331  0.92915  0.28489  1.0000
  O   O40       1.0  0.73406  0.92979  0.37237  1.0000
  C   C141      1.0  0.32023  0.52555  0.54757  1.0000
  C   C142      1.0  0.32007  0.53570  0.48383  1.0000
  C   C143      1.0  0.31972  0.51013  0.43614  1.0000
  C   C144      1.0  0.31953  0.47440  0.45219  1.0000
  C   C145      1.0  0.31970  0.46425  0.51593  1.0000
  C   C146      1.0  0.32005  0.48982  0.56363  1.0000
  H   H37       1.0  0.32050  0.54473  0.58334  1.0000
  O   O41       1.0  0.32024  0.56786  0.46938  1.0000
  O   O42       1.0  0.31957  0.51926  0.37877  1.0000
  H   H38       1.0  0.31927  0.45522  0.41642  1.0000
  O   O43       1.0  0.31953  0.43209  0.53038  1.0000
  O   O44       1.0  0.32019  0.48069  0.62100  1.0000
  C   C147      1.0  0.72436  0.07086  0.79610  1.0000
  C   C148      1.0  0.76003  0.07070  0.81440  1.0000
  C   C149      1.0  0.78674  0.07036  0.76835  1.0000
  C   C150      1.0  0.77777  0.07018  0.70401  1.0000
  C   C151      1.0  0.74209  0.07034  0.68571  1.0000
  C   C152      1.0  0.71539  0.07068  0.73176  1.0000
  H   H39       1.0  0.70433  0.07112  0.83064  1.0000
  O   O45       1.0  0.76811  0.07086  0.87231  1.0000
  O   O46       1.0  0.81885  0.07021  0.78482  1.0000
  H   H40       1.0  0.79780  0.06992  0.66947  1.0000
  O   O47       1.0  0.73402  0.07018  0.62780  1.0000
  O   O48       1.0  0.68328  0.07083  0.71529  1.0000
  C   C153      1.0  0.82025  0.52559  0.95224  1.0000
  C   C154      1.0  0.82007  0.53574  0.01598  1.0000
  C   C155      1.0  0.81972  0.51016  0.06369  1.0000
  C   C156      1.0  0.81955  0.47443  0.04765  1.0000
  C   C157      1.0  0.81972  0.46429  0.98391  1.0000
  C   C158      1.0  0.82007  0.48987  0.93621  1.0000
  H   H41       1.0  0.82051  0.54478  0.91647  1.0000
  O   O49       1.0  0.82023  0.56789  0.03042  1.0000
  O   O50       1.0  0.81957  0.51929  0.12105  1.0000
  H   H42       1.0  0.81929  0.45525  0.08343  1.0000
  O   O51       1.0  0.81957  0.43213  0.96947  1.0000
  O   O52       1.0  0.82023  0.48073  0.87884  1.0000
  C   C159      1.0  0.22440  0.07088  0.70405  1.0000
  C   C160      1.0  0.21544  0.07071  0.76840  1.0000
  C   C161      1.0  0.24215  0.07037  0.81443  1.0000
  C   C162      1.0  0.27783  0.07019  0.79612  1.0000
  C   C163      1.0  0.28679  0.07036  0.73177  1.0000
  C   C164      1.0  0.26008  0.07070  0.68573  1.0000
  H   H43       1.0  0.20437  0.07113  0.66952  1.0000
  O   O53       1.0  0.18333  0.07087  0.78488  1.0000
  O   O54       1.0  0.23409  0.07022  0.87235  1.0000
  H   H44       1.0  0.29786  0.06993  0.83065  1.0000
  O   O55       1.0  0.31890  0.07020  0.71529  1.0000
  O   O56       1.0  0.26814  0.07085  0.62782  1.0000
  C   C165      1.0  0.68194  0.52556  0.54762  1.0000
  C   C166      1.0  0.68211  0.53571  0.48387  1.0000
  C   C167      1.0  0.68247  0.51013  0.43618  1.0000
  C   C168      1.0  0.68265  0.47440  0.45223  1.0000
  C   C169      1.0  0.68248  0.46425  0.51598  1.0000
  C   C170      1.0  0.68212  0.48983  0.56367  1.0000
  H   H45       1.0  0.68168  0.54474  0.58338  1.0000
  O   O57       1.0  0.68195  0.56786  0.46942  1.0000
  O   O58       1.0  0.68262  0.51927  0.37881  1.0000
  H   H46       1.0  0.68292  0.45522  0.41646  1.0000
  O   O59       1.0  0.68264  0.43210  0.53042  1.0000
  O   O60       1.0  0.68197  0.48069  0.62104  1.0000
  C   C171      1.0  0.22435  0.92911  0.29615  1.0000
  C   C172      1.0  0.26002  0.92927  0.31448  1.0000
  C   C173      1.0  0.28674  0.92962  0.26845  1.0000
  C   C174      1.0  0.27778  0.92979  0.20409  1.0000
  C   C175      1.0  0.24211  0.92963  0.18577  1.0000
  C   C176      1.0  0.21539  0.92928  0.23180  1.0000
  H   H47       1.0  0.20431  0.92885  0.33067  1.0000
  O   O61       1.0  0.26808  0.92911  0.37239  1.0000
  O   O62       1.0  0.31884  0.92977  0.28494  1.0000
  H   H48       1.0  0.29782  0.93005  0.16957  1.0000
  O   O63       1.0  0.23405  0.92979  0.12785  1.0000
  O   O64       1.0  0.18329  0.92913  0.21531  1.0000
  C   C177      1.0  0.68193  0.97440  0.54779  1.0000
  C   C178      1.0  0.68211  0.96425  0.48405  1.0000
  C   C179      1.0  0.68246  0.98983  0.43635  1.0000
  C   C180      1.0  0.68263  0.02556  0.45238  1.0000
  C   C181      1.0  0.68245  0.03571  0.51612  1.0000
  C   C182      1.0  0.68210  0.01013  0.56383  1.0000
  H   H49       1.0  0.68167  0.95522  0.58357  1.0000
  O   O65       1.0  0.68196  0.93210  0.46962  1.0000
  O   O66       1.0  0.68263  0.98070  0.37898  1.0000
  H   H50       1.0  0.68289  0.04474  0.41660  1.0000
  O   O67       1.0  0.68260  0.06786  0.53055  1.0000
  O   O68       1.0  0.68194  0.01926  0.62119  1.0000
  C   C183      1.0  0.22435  0.42913  0.70385  1.0000
  C   C184      1.0  0.26002  0.42929  0.68555  1.0000
  C   C185      1.0  0.28673  0.42963  0.73160  1.0000
  C   C186      1.0  0.27777  0.42981  0.79594  1.0000
  C   C187      1.0  0.24209  0.42965  0.81425  1.0000
  C   C188      1.0  0.21538  0.42931  0.76820  1.0000
  H   H51       1.0  0.20432  0.42888  0.66932  1.0000
  O   O69       1.0  0.26809  0.42913  0.62764  1.0000
  O   O70       1.0  0.31884  0.42978  0.71512  1.0000
  H   H52       1.0  0.29780  0.43006  0.83048  1.0000
  O   O71       1.0  0.23402  0.42981  0.87216  1.0000
  O   O72       1.0  0.18327  0.42917  0.78468  1.0000
  C   C189      1.0  0.82022  0.97444  0.95239  1.0000
  C   C190      1.0  0.82005  0.96429  0.01613  1.0000
  C   C191      1.0  0.81970  0.98987  0.06382  1.0000
  C   C192      1.0  0.81952  0.02560  0.04776  1.0000
  C   C193      1.0  0.81969  0.03575  0.98402  1.0000
  C   C194      1.0  0.82004  0.01017  0.93633  1.0000
  H   H53       1.0  0.82048  0.95526  0.91662  1.0000
  O   O73       1.0  0.82021  0.93214  0.03059  1.0000
  O   O74       1.0  0.81954  0.98074  0.12119  1.0000
  H   H54       1.0  0.81925  0.04478  0.08353  1.0000
  O   O75       1.0  0.81953  0.06790  0.96956  1.0000
  O   O76       1.0  0.82020  0.01930  0.87896  1.0000
  C   C195      1.0  0.27781  0.57086  0.20383  1.0000
  C   C196      1.0  0.24213  0.57069  0.18554  1.0000
  C   C197      1.0  0.21543  0.57035  0.23160  1.0000
  C   C198      1.0  0.22440  0.57017  0.29594  1.0000
  C   C199      1.0  0.26008  0.57034  0.31423  1.0000
  C   C200      1.0  0.28678  0.57069  0.26817  1.0000
  H   H55       1.0  0.29783  0.57112  0.16928  1.0000
  O   O77       1.0  0.23405  0.57085  0.12763  1.0000
  O   O78       1.0  0.18332  0.57020  0.21514  1.0000
  H   H56       1.0  0.20438  0.56992  0.33049  1.0000
  O   O79       1.0  0.26816  0.57018  0.37214  1.0000
  O   O80       1.0  0.31889  0.57084  0.28463  1.0000
  C   C201      1.0  0.31952  0.02554  0.45239  1.0000
  C   C202      1.0  0.31969  0.98981  0.43637  1.0000
  C   C203      1.0  0.32004  0.96424  0.48409  1.0000
  C   C204      1.0  0.32023  0.97440  0.54783  1.0000
  C   C205      1.0  0.32006  0.01013  0.56384  1.0000
  C   C206      1.0  0.31971  0.03570  0.51612  1.0000
  H   H57       1.0  0.31926  0.04472  0.41659  1.0000
  O   O81       1.0  0.31952  0.98067  0.37901  1.0000
  O   O82       1.0  0.32019  0.93209  0.46968  1.0000
  H   H58       1.0  0.32049  0.95523  0.58362  1.0000
  O   O83       1.0  0.32023  0.01928  0.62120  1.0000
  O   O84       1.0  0.31956  0.06786  0.53053  1.0000
  C   C207      1.0  0.77779  0.57085  0.29598  1.0000
  C   C208      1.0  0.74211  0.57068  0.31427  1.0000
  C   C209      1.0  0.71541  0.57035  0.26822  1.0000
  C   C210      1.0  0.72438  0.57018  0.20387  1.0000
  C   C211      1.0  0.76006  0.57036  0.18558  1.0000
  C   C212      1.0  0.78676  0.57069  0.23163  1.0000
  H   H59       1.0  0.79782  0.57110  0.33052  1.0000
  O   O85       1.0  0.73404  0.57083  0.37218  1.0000
  O   O86       1.0  0.68330  0.57019  0.28468  1.0000
  H   H60       1.0  0.70435  0.56993  0.16933  1.0000
  O   O87       1.0  0.76813  0.57021  0.12767  1.0000
  O   O88       1.0  0.81887  0.57084  0.21517  1.0000
  C   C213      1.0  0.18196  0.97444  0.95239  1.0000
  C   C214      1.0  0.18213  0.96428  0.01613  1.0000
  C   C215      1.0  0.18248  0.98985  0.06384  1.0000
  C   C216      1.0  0.18266  0.02558  0.04780  1.0000
  C   C217      1.0  0.18249  0.03574  0.98406  1.0000
  C   C218      1.0  0.18214  0.01017  0.93636  1.0000
  H   H61       1.0  0.18170  0.95526  0.91661  1.0000
  O   O89       1.0  0.18197  0.93212  0.03056  1.0000
  O   O90       1.0  0.18263  0.98070  0.12120  1.0000
  H   H62       1.0  0.18292  0.04475  0.08358  1.0000
  O   O91       1.0  0.18265  0.06790  0.96963  1.0000
  O   O92       1.0  0.18199  0.01932  0.87899  1.0000
  C   C219      1.0  0.77781  0.42914  0.70391  1.0000
  C   C220      1.0  0.74214  0.42930  0.68560  1.0000
  C   C221      1.0  0.71543  0.42964  0.73164  1.0000
  C   C222      1.0  0.72439  0.42982  0.79599  1.0000
  C   C223      1.0  0.76007  0.42965  0.81430  1.0000
  C   C224      1.0  0.78678  0.42932  0.76825  1.0000
  H   H63       1.0  0.79785  0.42889  0.66938  1.0000
  O   O93       1.0  0.73407  0.42914  0.62769  1.0000
  O   O94       1.0  0.68332  0.42978  0.71517  1.0000
  H   H64       1.0  0.70436  0.43007  0.83052  1.0000
  O   O95       1.0  0.76814  0.42981  0.87221  1.0000
  O   O96       1.0  0.81889  0.42917  0.78473  1.0000
