data_image0
_chemical_formula_structural       Fe16C7NCNCNC3NCNC11NCNC7NHO2H2O2H2O2H2O2HNiC7NCNCNC3NCNC11NCNC7NHO2H2O2H2O2H2O2HNiC7NCNCNC3NCNC11NCNC7NHO2H2O2H2O2H2O2HNiC7NCNCNC3NCNC11NCNC7NHO2H2O2H2O2H2O2HNiC6HO2HO2C6HO2HO2C6HO2HO2C6HO2HO2C6HO2HO2C6HO2HO2C6HO2HO2C6HO2HO2C6HO2HO2C6HO2HO2C6HO2HO2C6HO2HO2C6HO2HO2C6HO2HO2C6HO2HO2C6HO2HO2C6O2HO2HCuC6O2HO2HCuC6O2HO2HCuC6O2HO2HCuC6O2HO2HCuC6O2HO2HCuC6O2HO2HCuC6O2HO2HCuC6O2HO2HCuC6O2HO2HCuC6O2HO2HCuC6O2HO2HCuC6O2HO2HCuC6O2HO2HCuC6O2HO2HCuC6O2HO2HCu
_chemical_formula_sum              "Fe16 C320 N32 H96 O160 Ni4 Cu16"
_cell_length_a       61.3693
_cell_length_b       61.6804
_cell_length_c       21.1195
_cell_angle_alpha    90.0024
_cell_angle_beta     90.0003
_cell_angle_gamma    89.9998

_space_group_name_H-M_alt    "P 1"
_space_group_IT_number       1

loop_
  _space_group_symop_operation_xyz
  'x, y, z'

loop_
  _atom_site_type_symbol
  _atom_site_label
  _atom_site_symmetry_multiplicity
  _atom_site_fract_x
  _atom_site_fract_y
  _atom_site_fract_z
  _atom_site_occupancy
  Fe  Fe1       1.0  0.20888  0.54344  0.12286  1.0000
  Fe  Fe2       1.0  0.70890  0.95661  0.37707  1.0000
  Fe  Fe3       1.0  0.29354  0.45660  0.62289  1.0000
  Fe  Fe4       1.0  0.79354  0.04343  0.87717  1.0000
  Fe  Fe5       1.0  0.20885  0.45663  0.87661  1.0000
  Fe  Fe6       1.0  0.79356  0.95664  0.12332  1.0000
  Fe  Fe7       1.0  0.29359  0.54341  0.37655  1.0000
  Fe  Fe8       1.0  0.70886  0.04340  0.62346  1.0000
  Fe  Fe9       1.0  0.79361  0.45665  0.87659  1.0000
  Fe  Fe10      1.0  0.29360  0.04341  0.62344  1.0000
  Fe  Fe11      1.0  0.70887  0.54339  0.37653  1.0000
  Fe  Fe12      1.0  0.20890  0.95662  0.12330  1.0000
  Fe  Fe13      1.0  0.79359  0.54343  0.12288  1.0000
  Fe  Fe14      1.0  0.20892  0.04345  0.87718  1.0000
  Fe  Fe15      1.0  0.70891  0.45661  0.62291  1.0000
  Fe  Fe16      1.0  0.29356  0.95660  0.37708  1.0000
  C   C1        1.0  0.91692  0.79815  0.11358  1.0000
  C   C2        1.0  0.91053  0.82243  0.11377  1.0000
  C   C3        1.0  0.92846  0.84027  0.11401  1.0000
  C   C4        1.0  0.95287  0.83392  0.11411  1.0000
  C   C5        1.0  0.95841  0.80971  0.11395  1.0000
  C   C6        1.0  0.94126  0.79265  0.11365  1.0000
  C   C7        1.0  0.95269  0.77062  0.11355  1.0000
  N   N1        1.0  0.97747  0.77368  0.11377  1.0000
  C   C8        1.0  0.98055  0.79834  0.11402  1.0000
  N   N2        1.0  0.00122  0.81047  0.11433  1.0000
  C   C9        1.0  0.02190  0.79834  0.11428  1.0000
  N   N3        1.0  0.02497  0.77368  0.11403  1.0000
  C   C10       1.0  0.04976  0.77062  0.11393  1.0000
  C   C11       1.0  0.06119  0.79264  0.11416  1.0000
  C   C12       1.0  0.04404  0.80971  0.11435  1.0000
  N   N4        1.0  0.02497  0.72642  0.11385  1.0000
  C   C13       1.0  0.04976  0.72948  0.11366  1.0000
  N   N5        1.0  0.06195  0.75005  0.11359  1.0000
  C   C14       1.0  0.06119  0.70745  0.11377  1.0000
  C   C15       1.0  0.04404  0.69039  0.11402  1.0000
  C   C16       1.0  0.02190  0.70176  0.11411  1.0000
  C   C17       1.0  0.04959  0.83392  0.11448  1.0000
  C   C18       1.0  0.07400  0.84026  0.11448  1.0000
  C   C19       1.0  0.09192  0.82241  0.11441  1.0000
  C   C20       1.0  0.08552  0.79814  0.11420  1.0000
  C   C21       1.0  0.04957  0.66618  0.11410  1.0000
  C   C22       1.0  0.07397  0.65982  0.11390  1.0000
  C   C23       1.0  0.09190  0.67766  0.11370  1.0000
  C   C24       1.0  0.08552  0.70194  0.11364  1.0000
  N   N6        1.0  0.97748  0.72642  0.11391  1.0000
  C   C25       1.0  0.98055  0.70176  0.11419  1.0000
  N   N7        1.0  0.00122  0.68963  0.11439  1.0000
  C   C26       1.0  0.95842  0.69039  0.11416  1.0000
  C   C27       1.0  0.94127  0.70745  0.11386  1.0000
  C   C28       1.0  0.95269  0.72948  0.11368  1.0000
  C   C29       1.0  0.91694  0.70193  0.11386  1.0000
  C   C30       1.0  0.91056  0.67765  0.11413  1.0000
  C   C31       1.0  0.92849  0.65982  0.11431  1.0000
  C   C32       1.0  0.95289  0.66618  0.11433  1.0000
  N   N8        1.0  0.94050  0.75005  0.11337  1.0000
  H   H1        1.0  0.90503  0.78592  0.11342  1.0000
  O   O1        1.0  0.89009  0.82794  0.11372  1.0000
  O   O2        1.0  0.92291  0.86061  0.11412  1.0000
  H   H2        1.0  0.96516  0.84576  0.11429  1.0000
  H   H3        1.0  0.03731  0.84576  0.11456  1.0000
  O   O3        1.0  0.07955  0.86060  0.11452  1.0000
  O   O4        1.0  0.11237  0.82792  0.11452  1.0000
  H   H4        1.0  0.09741  0.78590  0.11412  1.0000
  H   H5        1.0  0.03728  0.65434  0.11426  1.0000
  O   O5        1.0  0.07951  0.63948  0.11386  1.0000
  O   O6        1.0  0.11234  0.67214  0.11356  1.0000
  H   H6        1.0  0.09742  0.71417  0.11352  1.0000
  H   H7        1.0  0.90503  0.71416  0.11371  1.0000
  O   O7        1.0  0.89011  0.67213  0.11423  1.0000
  O   O8        1.0  0.92295  0.63947  0.11443  1.0000
  H   H8        1.0  0.96519  0.65435  0.11449  1.0000
  Ni  Ni1       1.0  0.00122  0.75005  0.11378  1.0000
  C   C33       1.0  0.58554  0.79811  0.38622  1.0000
  C   C34       1.0  0.59193  0.82239  0.38610  1.0000
  C   C35       1.0  0.57400  0.84023  0.38590  1.0000
  C   C36       1.0  0.54960  0.83388  0.38578  1.0000
  C   C37       1.0  0.54406  0.80967  0.38589  1.0000
  C   C38       1.0  0.56120  0.79261  0.38614  1.0000
  C   C39       1.0  0.54978  0.77058  0.38619  1.0000
  N   N9        1.0  0.52499  0.77364  0.38598  1.0000
  C   C40       1.0  0.52191  0.79831  0.38579  1.0000
  N   N10       1.0  0.50124  0.81044  0.38550  1.0000
  C   C41       1.0  0.48056  0.79831  0.38553  1.0000
  N   N11       1.0  0.47749  0.77364  0.38571  1.0000
  C   C42       1.0  0.45270  0.77058  0.38581  1.0000
  C   C43       1.0  0.44128  0.79261  0.38563  1.0000
  C   C44       1.0  0.45842  0.80967  0.38548  1.0000
  N   N12       1.0  0.47749  0.72639  0.38579  1.0000
  C   C45       1.0  0.45270  0.72945  0.38598  1.0000
  N   N13       1.0  0.44051  0.75001  0.38610  1.0000
  C   C46       1.0  0.44128  0.70741  0.38583  1.0000
  C   C47       1.0  0.45842  0.69036  0.38554  1.0000
  C   C48       1.0  0.48057  0.70173  0.38547  1.0000
  C   C49       1.0  0.45287  0.83388  0.38541  1.0000
  C   C50       1.0  0.42846  0.84023  0.38543  1.0000
  C   C51       1.0  0.41054  0.82238  0.38546  1.0000
  C   C52       1.0  0.41694  0.79810  0.38561  1.0000
  C   C53       1.0  0.45289  0.66615  0.38539  1.0000
  C   C54       1.0  0.42849  0.65979  0.38558  1.0000
  C   C55       1.0  0.41056  0.67762  0.38582  1.0000
  C   C56       1.0  0.41694  0.70190  0.38594  1.0000
  N   N14       1.0  0.52498  0.72639  0.38572  1.0000
  C   C57       1.0  0.52191  0.70173  0.38539  1.0000
  N   N15       1.0  0.50124  0.68960  0.38516  1.0000
  C   C58       1.0  0.54404  0.69036  0.38540  1.0000
  C   C59       1.0  0.56120  0.70741  0.38573  1.0000
  C   C60       1.0  0.54977  0.72945  0.38597  1.0000
  C   C61       1.0  0.58553  0.70190  0.38572  1.0000
  C   C62       1.0  0.59190  0.67761  0.38539  1.0000
  C   C63       1.0  0.57397  0.65978  0.38518  1.0000
  C   C64       1.0  0.54957  0.66614  0.38517  1.0000
  N   N16       1.0  0.56196  0.75001  0.38632  1.0000
  H   H9        1.0  0.59744  0.78588  0.38636  1.0000
  O   O9        1.0  0.61238  0.82790  0.38616  1.0000
  O   O10       1.0  0.57955  0.86058  0.38584  1.0000
  H   H10       1.0  0.53730  0.84572  0.38563  1.0000
  H   H11       1.0  0.46516  0.84573  0.38536  1.0000
  O   O11       1.0  0.42291  0.86056  0.38543  1.0000
  O   O12       1.0  0.39009  0.82788  0.38535  1.0000
  H   H12       1.0  0.40505  0.78587  0.38566  1.0000
  H   H13       1.0  0.46519  0.65431  0.38521  1.0000
  O   O13       1.0  0.42295  0.63945  0.38557  1.0000
  O   O14       1.0  0.39012  0.67211  0.38595  1.0000
  H   H14       1.0  0.40504  0.71413  0.38609  1.0000
  H   H15       1.0  0.59743  0.71412  0.38590  1.0000
  O   O15       1.0  0.61235  0.67209  0.38528  1.0000
  O   O16       1.0  0.57951  0.63944  0.38500  1.0000
  H   H16       1.0  0.53727  0.65431  0.38498  1.0000
  Ni  Ni2       1.0  0.50124  0.75002  0.38591  1.0000
  C   C65       1.0  0.58553  0.29812  0.61494  1.0000
  C   C66       1.0  0.59193  0.32240  0.61476  1.0000
  C   C67       1.0  0.57400  0.34024  0.61451  1.0000
  C   C68       1.0  0.54959  0.33389  0.61440  1.0000
  C   C69       1.0  0.54405  0.30968  0.61457  1.0000
  C   C70       1.0  0.56120  0.29262  0.61488  1.0000
  C   C71       1.0  0.54977  0.27059  0.61498  1.0000
  N   N17       1.0  0.52499  0.27365  0.61476  1.0000
  C   C72       1.0  0.52191  0.29832  0.61450  1.0000
  N   N18       1.0  0.50124  0.31045  0.61418  1.0000
  C   C73       1.0  0.48056  0.29832  0.61424  1.0000
  N   N19       1.0  0.47749  0.27365  0.61449  1.0000
  C   C74       1.0  0.45270  0.27059  0.61459  1.0000
  C   C75       1.0  0.44127  0.29262  0.61435  1.0000
  C   C76       1.0  0.45841  0.30968  0.61416  1.0000
  N   N20       1.0  0.47749  0.22640  0.61469  1.0000
  C   C77       1.0  0.45270  0.22945  0.61487  1.0000
  N   N21       1.0  0.44051  0.25002  0.61493  1.0000
  C   C78       1.0  0.44127  0.20742  0.61477  1.0000
  C   C79       1.0  0.45842  0.19036  0.61453  1.0000
  C   C80       1.0  0.48056  0.20173  0.61444  1.0000
  C   C81       1.0  0.45287  0.33389  0.61403  1.0000
  C   C82       1.0  0.42846  0.34023  0.61402  1.0000
  C   C83       1.0  0.41054  0.32239  0.61410  1.0000
  C   C84       1.0  0.41694  0.29811  0.61431  1.0000
  C   C85       1.0  0.45289  0.16615  0.61445  1.0000
  C   C86       1.0  0.42849  0.15980  0.61465  1.0000
  C   C87       1.0  0.41056  0.17763  0.61484  1.0000
  C   C88       1.0  0.41694  0.20191  0.61489  1.0000
  N   N22       1.0  0.52498  0.22640  0.61463  1.0000
  C   C89       1.0  0.52190  0.20173  0.61436  1.0000
  N   N23       1.0  0.50123  0.18960  0.61415  1.0000
  C   C90       1.0  0.54404  0.19036  0.61440  1.0000
  C   C91       1.0  0.56119  0.20742  0.61469  1.0000
  C   C92       1.0  0.54977  0.22945  0.61486  1.0000
  C   C93       1.0  0.58552  0.20191  0.61469  1.0000
  C   C94       1.0  0.59190  0.17762  0.61443  1.0000
  C   C95       1.0  0.57397  0.15979  0.61426  1.0000
  C   C96       1.0  0.54957  0.16615  0.61423  1.0000
  N   N24       1.0  0.56196  0.25002  0.61517  1.0000
  H   H17       1.0  0.59743  0.28589  0.61511  1.0000
  O   O17       1.0  0.61237  0.32791  0.61480  1.0000
  O   O18       1.0  0.57955  0.36058  0.61439  1.0000
  H   H18       1.0  0.53730  0.34573  0.61422  1.0000
  H   H19       1.0  0.46515  0.34573  0.61395  1.0000
  O   O19       1.0  0.42291  0.36057  0.61397  1.0000
  O   O20       1.0  0.39009  0.32789  0.61398  1.0000
  H   H20       1.0  0.40504  0.28587  0.61439  1.0000
  H   H21       1.0  0.46518  0.15432  0.61429  1.0000
  O   O21       1.0  0.42295  0.13945  0.61469  1.0000
  O   O22       1.0  0.39011  0.17212  0.61498  1.0000
  H   H22       1.0  0.40504  0.21414  0.61502  1.0000
  H   H23       1.0  0.59743  0.21413  0.61484  1.0000
  O   O23       1.0  0.61235  0.17210  0.61433  1.0000
  O   O24       1.0  0.57950  0.13944  0.61414  1.0000
  H   H24       1.0  0.53727  0.15432  0.61407  1.0000
  Ni  Ni3       1.0  0.50124  0.25003  0.61475  1.0000
  C   C97       1.0  0.91692  0.20192  0.88652  1.0000
  C   C98       1.0  0.91053  0.17764  0.88640  1.0000
  C   C99       1.0  0.92846  0.15980  0.88620  1.0000
  C   C100      1.0  0.95286  0.16615  0.88608  1.0000
  C   C101      1.0  0.95840  0.19036  0.88618  1.0000
  C   C102      1.0  0.94126  0.20742  0.88644  1.0000
  C   C103      1.0  0.95268  0.22945  0.88648  1.0000
  N   N25       1.0  0.97747  0.22639  0.88627  1.0000
  C   C104      1.0  0.98055  0.20172  0.88608  1.0000
  N   N26       1.0  0.00122  0.18959  0.88580  1.0000
  C   C105      1.0  0.02190  0.20172  0.88582  1.0000
  N   N27       1.0  0.02497  0.22639  0.88601  1.0000
  C   C106      1.0  0.04976  0.22945  0.88611  1.0000
  C   C107      1.0  0.06118  0.20742  0.88593  1.0000
  C   C108      1.0  0.04404  0.19036  0.88578  1.0000
  N   N28       1.0  0.02497  0.27364  0.88608  1.0000
  C   C109      1.0  0.04976  0.27058  0.88627  1.0000
  N   N29       1.0  0.06195  0.25002  0.88639  1.0000
  C   C110      1.0  0.06118  0.29262  0.88611  1.0000
  C   C111      1.0  0.04404  0.30967  0.88582  1.0000
  C   C112      1.0  0.02189  0.29831  0.88576  1.0000
  C   C113      1.0  0.04959  0.16615  0.88571  1.0000
  C   C114      1.0  0.07400  0.15981  0.88573  1.0000
  C   C115      1.0  0.09192  0.17765  0.88575  1.0000
  C   C116      1.0  0.08552  0.20193  0.88590  1.0000
  C   C117      1.0  0.04957  0.33388  0.88567  1.0000
  C   C118      1.0  0.07397  0.34024  0.88586  1.0000
  C   C119      1.0  0.09190  0.32241  0.88611  1.0000
  C   C120      1.0  0.08551  0.29813  0.88622  1.0000
  N   N30       1.0  0.97748  0.27364  0.88601  1.0000
  C   C121      1.0  0.98055  0.29830  0.88568  1.0000
  N   N31       1.0  0.00122  0.31043  0.88544  1.0000
  C   C122      1.0  0.95841  0.30967  0.88568  1.0000
  C   C123      1.0  0.94126  0.29262  0.88602  1.0000
  C   C124      1.0  0.95269  0.27058  0.88625  1.0000
  C   C125      1.0  0.91693  0.29813  0.88601  1.0000
  C   C126      1.0  0.91055  0.32242  0.88568  1.0000
  C   C127      1.0  0.92849  0.34025  0.88546  1.0000
  C   C128      1.0  0.95289  0.33389  0.88545  1.0000
  N   N32       1.0  0.94050  0.25002  0.88661  1.0000
  H   H25       1.0  0.90502  0.21415  0.88665  1.0000
  O   O25       1.0  0.89008  0.17213  0.88646  1.0000
  O   O26       1.0  0.92291  0.13946  0.88614  1.0000
  H   H26       1.0  0.96516  0.15431  0.88593  1.0000
  H   H27       1.0  0.03730  0.15430  0.88566  1.0000
  O   O27       1.0  0.07955  0.13947  0.88573  1.0000
  O   O28       1.0  0.11237  0.17215  0.88565  1.0000
  H   H28       1.0  0.09741  0.21416  0.88595  1.0000
  H   H29       1.0  0.03727  0.34572  0.88549  1.0000
  O   O29       1.0  0.07951  0.36058  0.88585  1.0000
  O   O30       1.0  0.11234  0.32792  0.88623  1.0000
  H   H30       1.0  0.09742  0.28590  0.88638  1.0000
  H   H31       1.0  0.90503  0.28591  0.88619  1.0000
  O   O31       1.0  0.89011  0.32794  0.88557  1.0000
  O   O32       1.0  0.92295  0.36059  0.88528  1.0000
  H   H32       1.0  0.96519  0.34572  0.88526  1.0000
  Ni  Ni4       1.0  0.00122  0.25001  0.88620  1.0000
  C   C129      1.0  0.20878  0.51579  0.95201  1.0000
  C   C130      1.0  0.20888  0.52207  0.01572  1.0000
  C   C131      1.0  0.20907  0.50631  0.06344  1.0000
  C   C132      1.0  0.20916  0.48429  0.04745  1.0000
  C   C133      1.0  0.20906  0.47801  0.98374  1.0000
  C   C134      1.0  0.20887  0.49376  0.93602  1.0000
  H   H33       1.0  0.20864  0.52761  0.91622  1.0000
  O   O33       1.0  0.20880  0.54189  0.03011  1.0000
  O   O34       1.0  0.20916  0.51196  0.12077  1.0000
  H   H34       1.0  0.20930  0.47247  0.08324  1.0000
  O   O35       1.0  0.20914  0.45819  0.96935  1.0000
  O   O36       1.0  0.20878  0.48812  0.87869  1.0000
  C   C135      1.0  0.76768  0.95670  0.29615  1.0000
  C   C136      1.0  0.77315  0.95662  0.23180  1.0000
  C   C137      1.0  0.75671  0.95645  0.18585  1.0000
  C   C138      1.0  0.73479  0.95636  0.20425  1.0000
  C   C139      1.0  0.72932  0.95644  0.26861  1.0000
  C   C140      1.0  0.74576  0.95661  0.31456  1.0000
  H   H35       1.0  0.78001  0.95683  0.33062  1.0000
  O   O37       1.0  0.79288  0.95670  0.21524  1.0000
  O   O38       1.0  0.76164  0.95638  0.12793  1.0000
  H   H36       1.0  0.72246  0.95623  0.16979  1.0000
  O   O39       1.0  0.70960  0.95636  0.28517  1.0000
  O   O40       1.0  0.74084  0.95668  0.37247  1.0000
  C   C141      1.0  0.29364  0.51575  0.54743  1.0000
  C   C142      1.0  0.29356  0.52203  0.48372  1.0000
  C   C143      1.0  0.29338  0.50627  0.43601  1.0000
  C   C144      1.0  0.29328  0.48424  0.45199  1.0000
  C   C145      1.0  0.29336  0.47797  0.51570  1.0000
  C   C146      1.0  0.29354  0.49373  0.56342  1.0000
  H   H37       1.0  0.29378  0.52757  0.58322  1.0000
  O   O41       1.0  0.29365  0.54185  0.46933  1.0000
  O   O42       1.0  0.29331  0.51191  0.37867  1.0000
  H   H38       1.0  0.29314  0.47243  0.41621  1.0000
  O   O43       1.0  0.29327  0.45815  0.53009  1.0000
  O   O44       1.0  0.29361  0.48808  0.62076  1.0000
  C   C147      1.0  0.73476  0.04368  0.79629  1.0000
  C   C148      1.0  0.75668  0.04361  0.81467  1.0000
  C   C149      1.0  0.77312  0.04343  0.76871  1.0000
  C   C150      1.0  0.76763  0.04334  0.70436  1.0000
  C   C151      1.0  0.74572  0.04341  0.68598  1.0000
  C   C152      1.0  0.72928  0.04359  0.73194  1.0000
  H   H39       1.0  0.72243  0.04381  0.83076  1.0000
  O   O45       1.0  0.76161  0.04369  0.87258  1.0000
  O   O46       1.0  0.79284  0.04336  0.78525  1.0000
  H   H40       1.0  0.77996  0.04321  0.66989  1.0000
  O   O47       1.0  0.74078  0.04333  0.62806  1.0000
  O   O48       1.0  0.70955  0.04366  0.71539  1.0000
  C   C153      1.0  0.79368  0.51580  0.95202  1.0000
  C   C154      1.0  0.79358  0.52207  0.01573  1.0000
  C   C155      1.0  0.79339  0.50631  0.06344  1.0000
  C   C156      1.0  0.79330  0.48428  0.04743  1.0000
  C   C157      1.0  0.79340  0.47801  0.98372  1.0000
  C   C158      1.0  0.79359  0.49377  0.93602  1.0000
  H   H41       1.0  0.79382  0.52762  0.91624  1.0000
  O   O49       1.0  0.79367  0.54189  0.03014  1.0000
  O   O50       1.0  0.79331  0.51195  0.12078  1.0000
  H   H42       1.0  0.79316  0.47246  0.08321  1.0000
  O   O51       1.0  0.79332  0.45819  0.96932  1.0000
  O   O52       1.0  0.79368  0.48813  0.87868  1.0000
  C   C159      1.0  0.23482  0.04335  0.70436  1.0000
  C   C160      1.0  0.22934  0.04345  0.76871  1.0000
  C   C161      1.0  0.24578  0.04362  0.81467  1.0000
  C   C162      1.0  0.26770  0.04370  0.79627  1.0000
  C   C163      1.0  0.27318  0.04360  0.73192  1.0000
  C   C164      1.0  0.25674  0.04343  0.68597  1.0000
  H   H43       1.0  0.22249  0.04322  0.66989  1.0000
  O   O53       1.0  0.20962  0.04338  0.78527  1.0000
  O   O54       1.0  0.24086  0.04371  0.87258  1.0000
  H   H44       1.0  0.28003  0.04383  0.83074  1.0000
  O   O55       1.0  0.29290  0.04367  0.71537  1.0000
  O   O56       1.0  0.26167  0.04334  0.62805  1.0000
  C   C165      1.0  0.70881  0.51576  0.54741  1.0000
  C   C166      1.0  0.70890  0.52202  0.48370  1.0000
  C   C167      1.0  0.70908  0.50626  0.43600  1.0000
  C   C168      1.0  0.70918  0.48424  0.45201  1.0000
  C   C169      1.0  0.70909  0.47797  0.51572  1.0000
  C   C170      1.0  0.70891  0.49374  0.56342  1.0000
  H   H45       1.0  0.70868  0.52758  0.58319  1.0000
  O   O57       1.0  0.70881  0.54185  0.46929  1.0000
  O   O58       1.0  0.70915  0.51190  0.37865  1.0000
  H   H46       1.0  0.70931  0.47242  0.41623  1.0000
  O   O59       1.0  0.70918  0.45815  0.53013  1.0000
  O   O60       1.0  0.70884  0.48810  0.62077  1.0000
  C   C171      1.0  0.23479  0.95668  0.29614  1.0000
  C   C172      1.0  0.25670  0.95659  0.31455  1.0000
  C   C173      1.0  0.27314  0.95642  0.26861  1.0000
  C   C174      1.0  0.26767  0.95634  0.20426  1.0000
  C   C175      1.0  0.24576  0.95643  0.18584  1.0000
  C   C176      1.0  0.22931  0.95660  0.23178  1.0000
  H   H47       1.0  0.22245  0.95681  0.33060  1.0000
  O   O61       1.0  0.26162  0.95667  0.37247  1.0000
  O   O62       1.0  0.29287  0.95634  0.28518  1.0000
  H   H48       1.0  0.28001  0.95622  0.16980  1.0000
  O   O63       1.0  0.24084  0.95636  0.12792  1.0000
  O   O64       1.0  0.20959  0.95668  0.21521  1.0000
  C   C177      1.0  0.70880  0.98424  0.54797  1.0000
  C   C178      1.0  0.70890  0.97797  0.48426  1.0000
  C   C179      1.0  0.70909  0.99373  0.43656  1.0000
  C   C180      1.0  0.70918  0.01576  0.45257  1.0000
  C   C181      1.0  0.70907  0.02203  0.51629  1.0000
  C   C182      1.0  0.70888  0.00627  0.56399  1.0000
  H   H49       1.0  0.70866  0.97242  0.58375  1.0000
  O   O65       1.0  0.70883  0.95815  0.46985  1.0000
  O   O66       1.0  0.70919  0.98809  0.37922  1.0000
  H   H50       1.0  0.70932  0.02758  0.41680  1.0000
  O   O67       1.0  0.70915  0.04185  0.53070  1.0000
  O   O68       1.0  0.70879  0.01191  0.62133  1.0000
  C   C183      1.0  0.23476  0.45634  0.70378  1.0000
  C   C184      1.0  0.25667  0.45642  0.68539  1.0000
  C   C185      1.0  0.27311  0.45660  0.73136  1.0000
  C   C186      1.0  0.26763  0.45670  0.79571  1.0000
  C   C187      1.0  0.24571  0.45662  0.81409  1.0000
  C   C188      1.0  0.22928  0.45644  0.76813  1.0000
  H   H51       1.0  0.22243  0.45620  0.66931  1.0000
  O   O69       1.0  0.26161  0.45633  0.62748  1.0000
  O   O70       1.0  0.29284  0.45668  0.71481  1.0000
  H   H52       1.0  0.27996  0.45683  0.83018  1.0000
  O   O71       1.0  0.24078  0.45670  0.87200  1.0000
  O   O72       1.0  0.20955  0.45636  0.78467  1.0000
  C   C189      1.0  0.79363  0.98429  0.95252  1.0000
  C   C190      1.0  0.79354  0.97801  0.01622  1.0000
  C   C191      1.0  0.79336  0.99376  0.06396  1.0000
  C   C192      1.0  0.79326  0.01579  0.04799  1.0000
  C   C193      1.0  0.79335  0.02207  0.98429  1.0000
  C   C194      1.0  0.79353  0.00632  0.93655  1.0000
  H   H53       1.0  0.79377  0.97248  0.91672  1.0000
  O   O73       1.0  0.79363  0.95819  0.03060  1.0000
  O   O74       1.0  0.79328  0.98811  0.12129  1.0000
  H   H54       1.0  0.79313  0.02760  0.08379  1.0000
  O   O75       1.0  0.79327  0.04190  0.96992  1.0000
  O   O76       1.0  0.79361  0.01197  0.87922  1.0000
  C   C195      1.0  0.26767  0.54369  0.20372  1.0000
  C   C196      1.0  0.24575  0.54361  0.18536  1.0000
  C   C197      1.0  0.22931  0.54344  0.23134  1.0000
  C   C198      1.0  0.23480  0.54335  0.29568  1.0000
  C   C199      1.0  0.25672  0.54343  0.31405  1.0000
  C   C200      1.0  0.27315  0.54360  0.26807  1.0000
  H   H55       1.0  0.27999  0.54382  0.16924  1.0000
  O   O77       1.0  0.24081  0.54370  0.12745  1.0000
  O   O78       1.0  0.20959  0.54337  0.21481  1.0000
  H   H56       1.0  0.22248  0.54322  0.33016  1.0000
  O   O79       1.0  0.26166  0.54334  0.37195  1.0000
  O   O80       1.0  0.29288  0.54367  0.28460  1.0000
  C   C201      1.0  0.29328  0.01575  0.45256  1.0000
  C   C202      1.0  0.29337  0.99373  0.43656  1.0000
  C   C203      1.0  0.29356  0.97797  0.48428  1.0000
  C   C204      1.0  0.29366  0.98424  0.54798  1.0000
  C   C205      1.0  0.29357  0.00627  0.56398  1.0000
  C   C206      1.0  0.29339  0.02203  0.51626  1.0000
  H   H57       1.0  0.29314  0.02757  0.41677  1.0000
  O   O81       1.0  0.29328  0.98808  0.37922  1.0000
  O   O82       1.0  0.29364  0.95815  0.46988  1.0000
  H   H58       1.0  0.29380  0.97243  0.58377  1.0000
  O   O83       1.0  0.29367  0.01192  0.62132  1.0000
  O   O84       1.0  0.29331  0.04185  0.53066  1.0000
  C   C207      1.0  0.76766  0.54368  0.29569  1.0000
  C   C208      1.0  0.74574  0.54359  0.31404  1.0000
  C   C209      1.0  0.72931  0.54341  0.26806  1.0000
  C   C210      1.0  0.73480  0.54333  0.20372  1.0000
  C   C211      1.0  0.75672  0.54343  0.18536  1.0000
  C   C212      1.0  0.77315  0.54360  0.23135  1.0000
  H   H59       1.0  0.77998  0.54381  0.33018  1.0000
  O   O85       1.0  0.74080  0.54366  0.37195  1.0000
  O   O86       1.0  0.70958  0.54333  0.28458  1.0000
  H   H60       1.0  0.72248  0.54320  0.16923  1.0000
  O   O87       1.0  0.76166  0.54336  0.12746  1.0000
  O   O88       1.0  0.79288  0.54369  0.21483  1.0000
  C   C213      1.0  0.20883  0.98430  0.95250  1.0000
  C   C214      1.0  0.20892  0.97801  0.01619  1.0000
  C   C215      1.0  0.20911  0.99375  0.06394  1.0000
  C   C216      1.0  0.20920  0.01578  0.04800  1.0000
  C   C217      1.0  0.20911  0.02207  0.98431  1.0000
  C   C218      1.0  0.20893  0.00633  0.93656  1.0000
  H   H61       1.0  0.20870  0.97249  0.91669  1.0000
  O   O89       1.0  0.20884  0.95818  0.03054  1.0000
  O   O90       1.0  0.20919  0.98809  0.12127  1.0000
  H   H62       1.0  0.20934  0.02759  0.08381  1.0000
  O   O91       1.0  0.20920  0.04190  0.96996  1.0000
  O   O92       1.0  0.20885  0.01199  0.87923  1.0000
  C   C219      1.0  0.76770  0.45636  0.70377  1.0000
  C   C220      1.0  0.74578  0.45644  0.68540  1.0000
  C   C221      1.0  0.72934  0.45662  0.73137  1.0000
  C   C222      1.0  0.73483  0.45671  0.79571  1.0000
  C   C223      1.0  0.75675  0.45663  0.81408  1.0000
  C   C224      1.0  0.77318  0.45645  0.76811  1.0000
  H   H63       1.0  0.78002  0.45622  0.66929  1.0000
  O   O93       1.0  0.74084  0.45635  0.62748  1.0000
  O   O94       1.0  0.70962  0.45669  0.71483  1.0000
  H   H64       1.0  0.72250  0.45685  0.83019  1.0000
  O   O95       1.0  0.76168  0.45672  0.87200  1.0000
  O   O96       1.0  0.79291  0.45638  0.78465  1.0000
  C   C225      1.0  0.18621  0.58365  0.12076  1.0000
  C   C226      1.0  0.16850  0.56599  0.12073  1.0000
  C   C227      1.0  0.14427  0.57240  0.11940  1.0000
  C   C228      1.0  0.13769  0.59649  0.11808  1.0000
  C   C229      1.0  0.15544  0.61422  0.11810  1.0000
  C   C230      1.0  0.17967  0.60774  0.11944  1.0000
  O   O97       1.0  0.20999  0.57736  0.12207  1.0000
  O   O98       1.0  0.17491  0.54237  0.12203  1.0000
  H   H65       1.0  0.13118  0.55931  0.11939  1.0000
  O   O99       1.0  0.11386  0.60271  0.11677  1.0000
  O   O100      1.0  0.14912  0.63792  0.11681  1.0000
  H   H66       1.0  0.19279  0.62082  0.11945  1.0000
  Cu  Cu1       1.0  0.11341  0.63821  0.11523  1.0000
  C   C231      1.0  0.68625  0.91640  0.37912  1.0000
  C   C232      1.0  0.66853  0.93406  0.37916  1.0000
  C   C233      1.0  0.64430  0.92765  0.38048  1.0000
  C   C234      1.0  0.63772  0.90356  0.38175  1.0000
  C   C235      1.0  0.65547  0.88583  0.38171  1.0000
  C   C236      1.0  0.67970  0.89231  0.38039  1.0000
  O   O101      1.0  0.71002  0.92269  0.37783  1.0000
  O   O102      1.0  0.67494  0.95768  0.37792  1.0000
  H   H67       1.0  0.63121  0.94074  0.38051  1.0000
  O   O103      1.0  0.61389  0.89734  0.38304  1.0000
  O   O104      1.0  0.64915  0.86213  0.38296  1.0000
  H   H68       1.0  0.69282  0.87923  0.38036  1.0000
  Cu  Cu2       1.0  0.61344  0.86184  0.38452  1.0000
  C   C237      1.0  0.33388  0.43399  0.62081  1.0000
  C   C238      1.0  0.31615  0.41634  0.62084  1.0000
  C   C239      1.0  0.32262  0.39224  0.61956  1.0000
  C   C240      1.0  0.34683  0.38572  0.61825  1.0000
  C   C241      1.0  0.36464  0.40340  0.61822  1.0000
  C   C242      1.0  0.35810  0.42751  0.61950  1.0000
  O   O105      1.0  0.32753  0.45764  0.62206  1.0000
  O   O106      1.0  0.29240  0.42270  0.62212  1.0000
  H   H69       1.0  0.30947  0.37921  0.61958  1.0000
  O   O107      1.0  0.35311  0.36202  0.61700  1.0000
  O   O108      1.0  0.38846  0.39713  0.61694  1.0000
  H   H70       1.0  0.37123  0.44057  0.61948  1.0000
  Cu  Cu3       1.0  0.38879  0.36160  0.61546  1.0000
  C   C243      1.0  0.83388  0.06604  0.87930  1.0000
  C   C244      1.0  0.81615  0.08368  0.87927  1.0000
  C   C245      1.0  0.82262  0.10779  0.88058  1.0000
  C   C246      1.0  0.84683  0.11430  0.88192  1.0000
  C   C247      1.0  0.86463  0.09662  0.88194  1.0000
  C   C248      1.0  0.85810  0.07252  0.88063  1.0000
  O   O109      1.0  0.82753  0.04239  0.87801  1.0000
  O   O110      1.0  0.79240  0.07733  0.87797  1.0000
  H   H71       1.0  0.80947  0.12082  0.88056  1.0000
  O   O111      1.0  0.85311  0.13801  0.88320  1.0000
  O   O112      1.0  0.88846  0.10289  0.88325  1.0000
  H   H72       1.0  0.87122  0.05946  0.88065  1.0000
  Cu  Cu4       1.0  0.88879  0.13842  0.88478  1.0000
  C   C249      1.0  0.16852  0.43402  0.87882  1.0000
  C   C250      1.0  0.18625  0.41638  0.87879  1.0000
  C   C251      1.0  0.17979  0.39228  0.88015  1.0000
  C   C252      1.0  0.15558  0.38575  0.88152  1.0000
  C   C253      1.0  0.13777  0.40343  0.88155  1.0000
  C   C254      1.0  0.14430  0.42754  0.88019  1.0000
  O   O113      1.0  0.17486  0.45767  0.87749  1.0000
  O   O114      1.0  0.21000  0.42275  0.87744  1.0000
  H   H73       1.0  0.19295  0.37925  0.88013  1.0000
  O   O115      1.0  0.14931  0.36205  0.88285  1.0000
  O   O116      1.0  0.11395  0.39716  0.88290  1.0000
  H   H74       1.0  0.13117  0.44059  0.88021  1.0000
  Cu  Cu5       1.0  0.11363  0.36163  0.88448  1.0000
  C   C255      1.0  0.83390  0.93404  0.12112  1.0000
  C   C256      1.0  0.81617  0.91639  0.12115  1.0000
  C   C257      1.0  0.82263  0.89229  0.11980  1.0000
  C   C258      1.0  0.84684  0.88577  0.11842  1.0000
  C   C259      1.0  0.86465  0.90345  0.11840  1.0000
  C   C260      1.0  0.85812  0.92755  0.11975  1.0000
  O   O117      1.0  0.82755  0.95769  0.12245  1.0000
  O   O118      1.0  0.79242  0.92275  0.12250  1.0000
  H   H75       1.0  0.80948  0.87926  0.11982  1.0000
  O   O119      1.0  0.85312  0.86207  0.11710  1.0000
  O   O120      1.0  0.88847  0.89718  0.11705  1.0000
  H   H76       1.0  0.87124  0.94061  0.11973  1.0000
  Cu  Cu6       1.0  0.88879  0.86165  0.11548  1.0000
  C   C261      1.0  0.33392  0.56601  0.37871  1.0000
  C   C262      1.0  0.31619  0.58366  0.37868  1.0000
  C   C263      1.0  0.32266  0.60776  0.38000  1.0000
  C   C264      1.0  0.34687  0.61428  0.38135  1.0000
  C   C265      1.0  0.36468  0.59660  0.38138  1.0000
  C   C266      1.0  0.35814  0.57250  0.38005  1.0000
  O   O121      1.0  0.32758  0.54236  0.37741  1.0000
  O   O122      1.0  0.29245  0.57730  0.37736  1.0000
  H   H77       1.0  0.30951  0.62079  0.37998  1.0000
  O   O123      1.0  0.35315  0.63798  0.38264  1.0000
  O   O124      1.0  0.38850  0.60287  0.38269  1.0000
  H   H78       1.0  0.37127  0.55944  0.38007  1.0000
  Cu  Cu7       1.0  0.38882  0.63840  0.38423  1.0000
  C   C267      1.0  0.66853  0.06600  0.62129  1.0000
  C   C268      1.0  0.68626  0.08365  0.62133  1.0000
  C   C269      1.0  0.67979  0.10775  0.62002  1.0000
  C   C270      1.0  0.65558  0.11427  0.61866  1.0000
  C   C271      1.0  0.63777  0.09659  0.61862  1.0000
  C   C272      1.0  0.64431  0.07249  0.61993  1.0000
  O   O125      1.0  0.67487  0.04235  0.62258  1.0000
  O   O126      1.0  0.71000  0.07728  0.62266  1.0000
  H   H79       1.0  0.69295  0.12078  0.62005  1.0000
  O   O127      1.0  0.64931  0.13798  0.61737  1.0000
  O   O128      1.0  0.61395  0.10287  0.61729  1.0000
  H   H80       1.0  0.63118  0.05943  0.61990  1.0000
  Cu  Cu8       1.0  0.61363  0.13840  0.61576  1.0000
  C   C273      1.0  0.83394  0.43404  0.87870  1.0000
  C   C274      1.0  0.81620  0.41640  0.87867  1.0000
  C   C275      1.0  0.82267  0.39229  0.87993  1.0000
  C   C276      1.0  0.84688  0.38577  0.88122  1.0000
  C   C277      1.0  0.86469  0.40345  0.88125  1.0000
  C   C278      1.0  0.85816  0.42755  0.87999  1.0000
  O   O129      1.0  0.82759  0.45769  0.87747  1.0000
  O   O130      1.0  0.79246  0.42276  0.87742  1.0000
  H   H81       1.0  0.80951  0.37926  0.87991  1.0000
  O   O131      1.0  0.85315  0.36206  0.88245  1.0000
  O   O132      1.0  0.88851  0.39717  0.88251  1.0000
  H   H82       1.0  0.87129  0.44061  0.88001  1.0000
  Cu  Cu9       1.0  0.88883  0.36164  0.88397  1.0000
  C   C279      1.0  0.31625  0.08361  0.62140  1.0000
  C   C280      1.0  0.33397  0.06596  0.62137  1.0000
  C   C281      1.0  0.35820  0.07237  0.62012  1.0000
  C   C282      1.0  0.36478  0.09646  0.61890  1.0000
  C   C283      1.0  0.34702  0.11419  0.61893  1.0000
  C   C284      1.0  0.32279  0.10771  0.62018  1.0000
  O   O133      1.0  0.29248  0.07732  0.62263  1.0000
  O   O134      1.0  0.32756  0.04234  0.62256  1.0000
  H   H83       1.0  0.37129  0.05928  0.62009  1.0000
  O   O135      1.0  0.38861  0.10268  0.61767  1.0000
  O   O136      1.0  0.35335  0.13789  0.61773  1.0000
  H   H84       1.0  0.30968  0.12078  0.62021  1.0000
  Cu  Cu10      1.0  0.38906  0.13818  0.61625  1.0000
  C   C285      1.0  0.66854  0.56600  0.37859  1.0000
  C   C286      1.0  0.68627  0.58364  0.37857  1.0000
  C   C287      1.0  0.67980  0.60775  0.37979  1.0000
  C   C288      1.0  0.65559  0.61427  0.38104  1.0000
  C   C289      1.0  0.63778  0.59659  0.38107  1.0000
  C   C290      1.0  0.64432  0.57249  0.37985  1.0000
  O   O137      1.0  0.67488  0.54235  0.37739  1.0000
  O   O138      1.0  0.71002  0.57728  0.37734  1.0000
  H   H85       1.0  0.69295  0.62078  0.37977  1.0000
  O   O139      1.0  0.64931  0.63797  0.38224  1.0000
  O   O140      1.0  0.61396  0.60286  0.38230  1.0000
  H   H86       1.0  0.63119  0.55943  0.37987  1.0000
  Cu  Cu11      1.0  0.61364  0.63839  0.38372  1.0000
  C   C291      1.0  0.16857  0.93402  0.12120  1.0000
  C   C292      1.0  0.18630  0.91638  0.12122  1.0000
  C   C293      1.0  0.17983  0.89227  0.11997  1.0000
  C   C294      1.0  0.15562  0.88575  0.11869  1.0000
  C   C295      1.0  0.13781  0.90343  0.11867  1.0000
  C   C296      1.0  0.14435  0.92753  0.11993  1.0000
  O   O141      1.0  0.17492  0.95767  0.12242  1.0000
  O   O142      1.0  0.21005  0.92274  0.12246  1.0000
  H   H87       1.0  0.19299  0.87924  0.11998  1.0000
  O   O143      1.0  0.14934  0.86205  0.11747  1.0000
  O   O144      1.0  0.11399  0.89716  0.11743  1.0000
  H   H88       1.0  0.13122  0.94059  0.11991  1.0000
  Cu  Cu12      1.0  0.11367  0.86163  0.11597  1.0000
  C   C297      1.0  0.83392  0.56604  0.12085  1.0000
  C   C298      1.0  0.81619  0.58368  0.12087  1.0000
  C   C299      1.0  0.82266  0.60778  0.11966  1.0000
  C   C300      1.0  0.84687  0.61431  0.11841  1.0000
  C   C301      1.0  0.86468  0.59662  0.11838  1.0000
  C   C302      1.0  0.85814  0.57252  0.11960  1.0000
  O   O145      1.0  0.82758  0.54239  0.12204  1.0000
  O   O146      1.0  0.79244  0.57732  0.12210  1.0000
  H   H89       1.0  0.80951  0.62082  0.11968  1.0000
  O   O147      1.0  0.85315  0.63801  0.11722  1.0000
  O   O148      1.0  0.88850  0.60290  0.11716  1.0000
  H   H90       1.0  0.87127  0.55946  0.11958  1.0000
  Cu  Cu13      1.0  0.88882  0.63843  0.11574  1.0000
  C   C303      1.0  0.16858  0.06605  0.87921  1.0000
  C   C304      1.0  0.18631  0.08370  0.87920  1.0000
  C   C305      1.0  0.17984  0.10780  0.88041  1.0000
  C   C306      1.0  0.15562  0.11432  0.88164  1.0000
  C   C307      1.0  0.13782  0.09664  0.88166  1.0000
  C   C308      1.0  0.14436  0.07253  0.88045  1.0000
  O   O149      1.0  0.17493  0.04240  0.87802  1.0000
  O   O150      1.0  0.21006  0.07734  0.87798  1.0000
  H   H91       1.0  0.19299  0.12083  0.88039  1.0000
  O   O151      1.0  0.14935  0.13802  0.88283  1.0000
  O   O152      1.0  0.11400  0.10291  0.88287  1.0000
  H   H92       1.0  0.13123  0.05947  0.88046  1.0000
  Cu  Cu14      1.0  0.11367  0.13844  0.88429  1.0000
  C   C309      1.0  0.66858  0.43401  0.62092  1.0000
  C   C310      1.0  0.68630  0.41636  0.62095  1.0000
  C   C311      1.0  0.67984  0.39226  0.61977  1.0000
  C   C312      1.0  0.65562  0.38574  0.61856  1.0000
  C   C313      1.0  0.63782  0.40342  0.61852  1.0000
  C   C314      1.0  0.64435  0.42752  0.61971  1.0000
  O   O153      1.0  0.67492  0.45766  0.62207  1.0000
  O   O154      1.0  0.71005  0.42272  0.62214  1.0000
  H   H93       1.0  0.69299  0.37923  0.61980  1.0000
  O   O155      1.0  0.64934  0.36204  0.61740  1.0000
  O   O156      1.0  0.61399  0.39715  0.61734  1.0000
  H   H94       1.0  0.63123  0.44058  0.61968  1.0000
  Cu  Cu15      1.0  0.61367  0.36162  0.61597  1.0000
  C   C315      1.0  0.33389  0.93399  0.37908  1.0000
  C   C316      1.0  0.31616  0.91635  0.37904  1.0000
  C   C317      1.0  0.32263  0.89224  0.38021  1.0000
  C   C318      1.0  0.34684  0.88572  0.38143  1.0000
  C   C319      1.0  0.36465  0.90340  0.38147  1.0000
  C   C320      1.0  0.35811  0.92750  0.38030  1.0000
  O   O157      1.0  0.32755  0.95764  0.37793  1.0000
  O   O158      1.0  0.29241  0.92271  0.37785  1.0000
  H   H95       1.0  0.30948  0.87921  0.38018  1.0000
  O   O159      1.0  0.35312  0.86202  0.38258  1.0000
  O   O160      1.0  0.38847  0.89713  0.38267  1.0000
  H   H96       1.0  0.37124  0.94056  0.38033  1.0000
  Cu  Cu16      1.0  0.38880  0.86160  0.38402  1.0000
