data_image0
_chemical_formula_structural       Fe16C7NCNCNC3NCNC11NCNC7NHO2H2O2H2O2H2O2HNiC7NCNCNC3NCNC11NCNC7NHO2H2O2H2O2H2O2HNiC7NCNCNC3NCNC11NCNC7NHO2H2O2H2O2H2O2HNiC7NCNCNC3NCNC11NCNC7NHO2H2O2H2O2H2O2HNiC6HO2HO2C6HO2HO2C6HO2HO2C6HO2HO2C6HO2HO2C6HO2HO2C6HO2HO2C6HO2HO2C6HO2HO2C6HO2HO2C6HO2HO2C6HO2HO2C6HO2HO2C6HO2HO2C6HO2HO2C6HO2HO2
_chemical_formula_sum              "Fe16 C224 N32 H64 O96 Ni4"
_cell_length_a       37.5939
_cell_length_b       38.1317
_cell_length_c       21.1161
_cell_angle_alpha    90.0015
_cell_angle_beta     90
_cell_angle_gamma    90.0011

_space_group_name_H-M_alt    "P 1"
_space_group_IT_number       1

loop_
  _space_group_symop_operation_xyz
  'x, y, z'

loop_
  _atom_site_type_symbol
  _atom_site_label
  _atom_site_symmetry_multiplicity
  _atom_site_fract_x
  _atom_site_fract_y
  _atom_site_fract_z
  _atom_site_occupancy
  Fe  Fe1       1.0  0.18281  0.57097  0.12136  1.0000
  Fe  Fe2       1.0  0.68269  0.92913  0.37781  1.0000
  Fe  Fe3       1.0  0.31940  0.42901  0.62136  1.0000
  Fe  Fe4       1.0  0.81952  0.07087  0.87786  1.0000
  Fe  Fe5       1.0  0.18268  0.42916  0.87772  1.0000
  Fe  Fe6       1.0  0.81941  0.92903  0.12147  1.0000
  Fe  Fe7       1.0  0.31951  0.57084  0.37772  1.0000
  Fe  Fe8       1.0  0.68283  0.07096  0.62150  1.0000
  Fe  Fe9       1.0  0.81944  0.42905  0.87840  1.0000
  Fe  Fe10      1.0  0.31956  0.07085  0.62240  1.0000
  Fe  Fe11      1.0  0.68281  0.57097  0.37839  1.0000
  Fe  Fe12      1.0  0.18272  0.92918  0.12239  1.0000
  Fe  Fe13      1.0  0.81953  0.57089  0.12204  1.0000
  Fe  Fe14      1.0  0.18288  0.07101  0.87879  1.0000
  Fe  Fe15      1.0  0.68271  0.42915  0.62204  1.0000
  Fe  Fe16      1.0  0.31942  0.92902  0.37874  1.0000
  C   C1        1.0  0.13871  0.82788  0.11437  1.0000
  C   C2        1.0  0.14913  0.86716  0.11424  1.0000
  C   C3        1.0  0.11986  0.89601  0.11403  1.0000
  C   C4        1.0  0.08002  0.88572  0.11389  1.0000
  C   C5        1.0  0.07099  0.84656  0.11400  1.0000
  C   C6        1.0  0.09899  0.81897  0.11427  1.0000
  C   C7        1.0  0.08035  0.78333  0.11432  1.0000
  N   N1        1.0  0.03988  0.78827  0.11409  1.0000
  C   C8        1.0  0.03485  0.82816  0.11390  1.0000
  N   N2        1.0  0.00109  0.84777  0.11360  1.0000
  C   C9        1.0  0.96735  0.82814  0.11361  1.0000
  N   N3        1.0  0.96234  0.78824  0.11380  1.0000
  C   C10       1.0  0.92188  0.78328  0.11389  1.0000
  C   C11       1.0  0.90322  0.81890  0.11369  1.0000
  C   C12       1.0  0.93119  0.84651  0.11355  1.0000
  N   N4        1.0  0.96237  0.71181  0.11389  1.0000
  C   C13       1.0  0.92190  0.71674  0.11407  1.0000
  N   N5        1.0  0.90198  0.75000  0.11417  1.0000
  C   C14       1.0  0.90326  0.68109  0.11391  1.0000
  C   C15       1.0  0.93126  0.65351  0.11363  1.0000
  C   C16       1.0  0.96740  0.67191  0.11358  1.0000
  C   C17       1.0  0.92212  0.88567  0.11347  1.0000
  C   C18       1.0  0.88228  0.89592  0.11347  1.0000
  C   C19       1.0  0.85303  0.86704  0.11349  1.0000
  C   C20       1.0  0.86349  0.82778  0.11365  1.0000
  C   C21       1.0  0.92224  0.61435  0.11349  1.0000
  C   C22       1.0  0.88241  0.60405  0.11367  1.0000
  C   C23       1.0  0.85314  0.63289  0.11390  1.0000
  C   C24       1.0  0.86354  0.67217  0.11401  1.0000
  N   N6        1.0  0.03990  0.71183  0.11385  1.0000
  C   C25       1.0  0.03489  0.67194  0.11353  1.0000
  N   N7        1.0  0.00115  0.65230  0.11328  1.0000
  C   C26       1.0  0.07103  0.65355  0.11354  1.0000
  C   C27       1.0  0.09902  0.68115  0.11388  1.0000
  C   C28       1.0  0.08036  0.71679  0.11411  1.0000
  C   C29       1.0  0.13874  0.67224  0.11389  1.0000
  C   C30       1.0  0.14916  0.63297  0.11357  1.0000
  C   C31       1.0  0.11989  0.60411  0.11335  1.0000
  C   C32       1.0  0.08006  0.61439  0.11332  1.0000
  N   N8        1.0  0.10025  0.75006  0.11446  1.0000
  H   H1        1.0  0.15814  0.80810  0.11451  1.0000
  O   O1        1.0  0.18251  0.87608  0.11431  1.0000
  O   O2        1.0  0.12890  0.92891  0.11396  1.0000
  H   H2        1.0  0.05994  0.90486  0.11373  1.0000
  H   H3        1.0  0.94217  0.90484  0.11342  1.0000
  O   O3        1.0  0.87320  0.92881  0.11347  1.0000
  O   O4        1.0  0.81965  0.87593  0.11338  1.0000
  H   H4        1.0  0.84408  0.80798  0.11370  1.0000
  H   H5        1.0  0.94232  0.59521  0.11332  1.0000
  O   O5        1.0  0.87338  0.57114  0.11366  1.0000
  O   O6        1.0  0.81976  0.62396  0.11401  1.0000
  H   H6        1.0  0.84411  0.69194  0.11415  1.0000
  H   H7        1.0  0.15816  0.69203  0.11407  1.0000
  O   O7        1.0  0.18254  0.62405  0.11347  1.0000
  O   O8        1.0  0.12894  0.57121  0.11318  1.0000
  H   H8        1.0  0.05999  0.59525  0.11313  1.0000
  Ni  Ni1       1.0  0.00113  0.75004  0.11402  1.0000
  C   C33       1.0  0.36351  0.67213  0.38696  1.0000
  C   C34       1.0  0.35309  0.63285  0.38678  1.0000
  C   C35       1.0  0.38236  0.60400  0.38653  1.0000
  C   C36       1.0  0.42220  0.61429  0.38641  1.0000
  C   C37       1.0  0.43123  0.65345  0.38657  1.0000
  C   C38       1.0  0.40323  0.68104  0.38687  1.0000
  C   C39       1.0  0.42188  0.71668  0.38697  1.0000
  N   N9        1.0  0.46234  0.71174  0.38673  1.0000
  C   C40       1.0  0.46737  0.67185  0.38648  1.0000
  N   N10       1.0  0.50113  0.65224  0.38616  1.0000
  C   C41       1.0  0.53487  0.67187  0.38620  1.0000
  N   N11       1.0  0.53988  0.71177  0.38644  1.0000
  C   C42       1.0  0.58034  0.71673  0.38653  1.0000
  C   C43       1.0  0.59900  0.68111  0.38629  1.0000
  C   C44       1.0  0.57103  0.65350  0.38611  1.0000
  N   N12       1.0  0.53985  0.78820  0.38662  1.0000
  C   C45       1.0  0.58032  0.78327  0.38679  1.0000
  N   N13       1.0  0.60024  0.75001  0.38686  1.0000
  C   C46       1.0  0.59896  0.81892  0.38668  1.0000
  C   C47       1.0  0.57096  0.84650  0.38644  1.0000
  C   C48       1.0  0.53482  0.82810  0.38636  1.0000
  C   C49       1.0  0.58010  0.61434  0.38598  1.0000
  C   C50       1.0  0.61995  0.60409  0.38597  1.0000
  C   C51       1.0  0.64919  0.63297  0.38603  1.0000
  C   C52       1.0  0.63873  0.67223  0.38624  1.0000
  C   C53       1.0  0.57998  0.88566  0.38635  1.0000
  C   C54       1.0  0.61981  0.89596  0.38654  1.0000
  C   C55       1.0  0.64908  0.86712  0.38673  1.0000
  C   C56       1.0  0.63868  0.82784  0.38679  1.0000
  N   N14       1.0  0.46232  0.78818  0.38658  1.0000
  C   C57       1.0  0.46733  0.82808  0.38631  1.0000
  N   N15       1.0  0.50107  0.84771  0.38609  1.0000
  C   C58       1.0  0.43119  0.84646  0.38635  1.0000
  C   C59       1.0  0.40320  0.81886  0.38666  1.0000
  C   C60       1.0  0.42186  0.78322  0.38683  1.0000
  C   C61       1.0  0.36348  0.82777  0.38667  1.0000
  C   C62       1.0  0.35306  0.86704  0.38641  1.0000
  C   C63       1.0  0.38232  0.89590  0.38622  1.0000
  C   C64       1.0  0.42216  0.88562  0.38618  1.0000
  N   N16       1.0  0.40197  0.74995  0.38715  1.0000
  H   H9        1.0  0.34408  0.69191  0.38713  1.0000
  O   O9        1.0  0.31971  0.62393  0.38684  1.0000
  O   O10       1.0  0.37332  0.57110  0.38642  1.0000
  H   H10       1.0  0.44228  0.59515  0.38622  1.0000
  H   H11       1.0  0.56005  0.59518  0.38591  1.0000
  O   O11       1.0  0.62902  0.57120  0.38592  1.0000
  O   O12       1.0  0.68257  0.62408  0.38590  1.0000
  H   H12       1.0  0.65814  0.69203  0.38631  1.0000
  H   H13       1.0  0.55990  0.90481  0.38620  1.0000
  O   O13       1.0  0.62884  0.92887  0.38657  1.0000
  O   O14       1.0  0.68246  0.87605  0.38685  1.0000
  H   H14       1.0  0.65811  0.80807  0.38691  1.0000
  H   H15       1.0  0.34406  0.80798  0.38683  1.0000
  O   O15       1.0  0.31968  0.87596  0.38632  1.0000
  O   O16       1.0  0.37328  0.92880  0.38609  1.0000
  H   H16       1.0  0.44223  0.90476  0.38602  1.0000
  Ni  Ni2       1.0  0.50109  0.74997  0.38670  1.0000
  C   C65       1.0  0.63876  0.17223  0.61306  1.0000
  C   C66       1.0  0.64921  0.13296  0.61324  1.0000
  C   C67       1.0  0.61995  0.10409  0.61350  1.0000
  C   C68       1.0  0.58011  0.11436  0.61361  1.0000
  C   C69       1.0  0.57105  0.15351  0.61345  1.0000
  C   C70       1.0  0.59903  0.18112  0.61314  1.0000
  C   C71       1.0  0.58036  0.21675  0.61305  1.0000
  N   N17       1.0  0.53990  0.21178  0.61328  1.0000
  C   C72       1.0  0.53490  0.17188  0.61353  1.0000
  N   N18       1.0  0.50115  0.15225  0.61386  1.0000
  C   C73       1.0  0.46740  0.17186  0.61381  1.0000
  N   N19       1.0  0.46237  0.21175  0.61357  1.0000
  C   C74       1.0  0.42190  0.21669  0.61348  1.0000
  C   C75       1.0  0.40326  0.18105  0.61372  1.0000
  C   C76       1.0  0.43125  0.15346  0.61390  1.0000
  N   N20       1.0  0.46234  0.28819  0.61338  1.0000
  C   C77       1.0  0.42187  0.28323  0.61321  1.0000
  N   N21       1.0  0.40198  0.24995  0.61314  1.0000
  C   C78       1.0  0.40321  0.31886  0.61331  1.0000
  C   C79       1.0  0.43119  0.34646  0.61356  1.0000
  C   C80       1.0  0.46734  0.32809  0.61363  1.0000
  C   C81       1.0  0.42221  0.11430  0.61403  1.0000
  C   C82       1.0  0.38237  0.10402  0.61404  1.0000
  C   C83       1.0  0.35310  0.13288  0.61398  1.0000
  C   C84       1.0  0.36354  0.17215  0.61377  1.0000
  C   C85       1.0  0.42215  0.38562  0.61364  1.0000
  C   C86       1.0  0.38231  0.39589  0.61345  1.0000
  C   C87       1.0  0.35305  0.36703  0.61326  1.0000
  C   C88       1.0  0.36349  0.32776  0.61320  1.0000
  N   N22       1.0  0.53987  0.28822  0.61342  1.0000
  C   C89       1.0  0.53483  0.32811  0.61369  1.0000
  N   N23       1.0  0.50108  0.34772  0.61391  1.0000
  C   C90       1.0  0.57096  0.34651  0.61365  1.0000
  C   C91       1.0  0.59897  0.31893  0.61335  1.0000
  C   C92       1.0  0.58033  0.28329  0.61317  1.0000
  C   C93       1.0  0.63868  0.32787  0.61333  1.0000
  C   C94       1.0  0.64908  0.36716  0.61360  1.0000
  C   C95       1.0  0.61979  0.39599  0.61378  1.0000
  C   C96       1.0  0.57996  0.38568  0.61382  1.0000
  N   N24       1.0  0.60025  0.25002  0.61286  1.0000
  H   H17       1.0  0.65817  0.19203  0.61289  1.0000
  O   O17       1.0  0.68259  0.12406  0.61319  1.0000
  O   O18       1.0  0.62902  0.07120  0.61361  1.0000
  H   H18       1.0  0.56004  0.09520  0.61380  1.0000
  H   H19       1.0  0.44227  0.09515  0.61410  1.0000
  O   O19       1.0  0.37332  0.07112  0.61409  1.0000
  O   O20       1.0  0.31973  0.12396  0.61411  1.0000
  H   H20       1.0  0.34411  0.19194  0.61369  1.0000
  H   H21       1.0  0.44221  0.40478  0.61379  1.0000
  O   O21       1.0  0.37325  0.42879  0.61341  1.0000
  O   O22       1.0  0.31967  0.37594  0.61313  1.0000
  H   H22       1.0  0.34406  0.30797  0.61309  1.0000
  H   H23       1.0  0.65812  0.30810  0.61318  1.0000
  O   O23       1.0  0.68245  0.37610  0.61368  1.0000
  O   O24       1.0  0.62882  0.42890  0.61390  1.0000
  H   H24       1.0  0.55988  0.40481  0.61398  1.0000
  Ni  Ni3       1.0  0.50112  0.24998  0.61330  1.0000
  C   C97       1.0  0.13877  0.17225  0.88583  1.0000
  C   C98       1.0  0.14922  0.13298  0.88602  1.0000
  C   C99       1.0  0.11996  0.10411  0.88625  1.0000
  C   C100      1.0  0.08012  0.11437  0.88634  1.0000
  C   C101      1.0  0.07106  0.15353  0.88617  1.0000
  C   C102      1.0  0.09904  0.18114  0.88588  1.0000
  C   C103      1.0  0.08037  0.21676  0.88577  1.0000
  N   N25       1.0  0.03991  0.21179  0.88598  1.0000
  C   C104      1.0  0.03491  0.17190  0.88623  1.0000
  N   N26       1.0  0.00116  0.15226  0.88653  1.0000
  C   C105      1.0  0.96741  0.17187  0.88647  1.0000
  N   N27       1.0  0.96238  0.21176  0.88622  1.0000
  C   C106      1.0  0.92191  0.21670  0.88610  1.0000
  C   C107      1.0  0.90327  0.18107  0.88633  1.0000
  C   C108      1.0  0.93126  0.15347  0.88653  1.0000
  N   N28       1.0  0.96235  0.28820  0.88603  1.0000
  C   C109      1.0  0.92188  0.28324  0.88583  1.0000
  N   N29       1.0  0.90199  0.24997  0.88575  1.0000
  C   C110      1.0  0.90322  0.31887  0.88592  1.0000
  C   C111      1.0  0.93120  0.34648  0.88618  1.0000
  C   C112      1.0  0.96735  0.32810  0.88628  1.0000
  C   C113      1.0  0.92222  0.11431  0.88666  1.0000
  C   C114      1.0  0.88238  0.10404  0.88665  1.0000
  C   C115      1.0  0.85311  0.13289  0.88656  1.0000
  C   C116      1.0  0.86355  0.17216  0.88636  1.0000
  C   C117      1.0  0.92215  0.38563  0.88626  1.0000
  C   C118      1.0  0.88232  0.39590  0.88605  1.0000
  C   C119      1.0  0.85306  0.36704  0.88584  1.0000
  C   C120      1.0  0.86349  0.32777  0.88579  1.0000
  N   N30       1.0  0.03988  0.28823  0.88612  1.0000
  C   C121      1.0  0.03484  0.32812  0.88638  1.0000
  N   N31       1.0  0.00109  0.34773  0.88658  1.0000
  C   C122      1.0  0.07097  0.34653  0.88637  1.0000
  C   C123      1.0  0.09898  0.31895  0.88608  1.0000
  C   C124      1.0  0.08034  0.28330  0.88590  1.0000
  C   C125      1.0  0.13869  0.32789  0.88609  1.0000
  C   C126      1.0  0.14909  0.36717  0.88636  1.0000
  C   C127      1.0  0.11980  0.39601  0.88653  1.0000
  C   C128      1.0  0.07997  0.38570  0.88654  1.0000
  N   N32       1.0  0.10026  0.25004  0.88560  1.0000
  H   H25       1.0  0.15818  0.19205  0.88567  1.0000
  O   O25       1.0  0.18260  0.12408  0.88598  1.0000
  O   O26       1.0  0.12903  0.07121  0.88637  1.0000
  H   H26       1.0  0.06005  0.09521  0.88652  1.0000
  H   H27       1.0  0.94228  0.09516  0.88674  1.0000
  O   O27       1.0  0.87333  0.07113  0.88669  1.0000
  O   O28       1.0  0.81974  0.12397  0.88667  1.0000
  H   H28       1.0  0.84412  0.19195  0.88627  1.0000
  H   H29       1.0  0.94222  0.40479  0.88643  1.0000
  O   O29       1.0  0.87326  0.42880  0.88600  1.0000
  O   O30       1.0  0.81968  0.37595  0.88569  1.0000
  H   H30       1.0  0.84407  0.30798  0.88566  1.0000
  H   H31       1.0  0.15813  0.30811  0.88595  1.0000
  O   O31       1.0  0.18246  0.37611  0.88647  1.0000
  O   O32       1.0  0.12883  0.42892  0.88665  1.0000
  H   H32       1.0  0.05989  0.40483  0.88669  1.0000
  Ni  Ni4       1.0  0.00113  0.25000  0.88598  1.0000
  C   C129      1.0  0.18236  0.52523  0.95123  1.0000
  C   C130      1.0  0.18271  0.53582  0.01472  1.0000
  C   C131      1.0  0.18334  0.51066  0.06300  1.0000
  C   C132      1.0  0.18364  0.47493  0.04780  1.0000
  C   C133      1.0  0.18329  0.46435  0.98432  1.0000
  C   C134      1.0  0.18265  0.48950  0.93603  1.0000
  H   H33       1.0  0.18188  0.54410  0.91502  1.0000
  O   O33       1.0  0.18244  0.56798  0.02840  1.0000
  O   O34       1.0  0.18366  0.52019  0.12013  1.0000
  H   H34       1.0  0.18412  0.45606  0.08401  1.0000
  O   O35       1.0  0.18355  0.43218  0.97064  1.0000
  O   O36       1.0  0.18234  0.47997  0.87890  1.0000
  C   C135      1.0  0.77818  0.92944  0.29499  1.0000
  C   C136      1.0  0.78668  0.92912  0.23044  1.0000
  C   C137      1.0  0.75953  0.92852  0.18507  1.0000
  C   C138      1.0  0.72389  0.92824  0.20425  1.0000
  C   C139      1.0  0.71539  0.92856  0.26880  1.0000
  C   C140      1.0  0.74254  0.92916  0.31417  1.0000
  H   H35       1.0  0.79855  0.92989  0.32902  1.0000
  O   O37       1.0  0.81876  0.92937  0.21318  1.0000
  O   O38       1.0  0.76718  0.92823  0.12698  1.0000
  H   H36       1.0  0.70352  0.92779  0.17023  1.0000
  O   O39       1.0  0.68331  0.92832  0.28606  1.0000
  O   O40       1.0  0.73489  0.92946  0.37226  1.0000
  C   C141      1.0  0.31981  0.52506  0.54780  1.0000
  C   C142      1.0  0.31953  0.53565  0.48432  1.0000
  C   C143      1.0  0.31892  0.51049  0.43603  1.0000
  C   C144      1.0  0.31859  0.47476  0.45122  1.0000
  C   C145      1.0  0.31887  0.46417  0.51470  1.0000
  C   C146      1.0  0.31948  0.48932  0.56299  1.0000
  H   H37       1.0  0.32027  0.54392  0.58402  1.0000
  O   O41       1.0  0.31983  0.56781  0.47065  1.0000
  O   O42       1.0  0.31866  0.52002  0.37890  1.0000
  H   H38       1.0  0.31813  0.45590  0.41501  1.0000
  O   O43       1.0  0.31857  0.43201  0.52838  1.0000
  O   O44       1.0  0.31974  0.47980  0.62013  1.0000
  C   C147      1.0  0.72403  0.07173  0.79502  1.0000
  C   C148      1.0  0.75968  0.07142  0.81421  1.0000
  C   C149      1.0  0.78683  0.07084  0.76885  1.0000
  C   C150      1.0  0.77834  0.07056  0.70430  1.0000
  C   C151      1.0  0.74270  0.07088  0.68511  1.0000
  C   C152      1.0  0.71554  0.07146  0.73047  1.0000
  H   H39       1.0  0.70367  0.07217  0.82904  1.0000
  O   O45       1.0  0.76732  0.07167  0.87231  1.0000
  O   O46       1.0  0.81891  0.07056  0.78612  1.0000
  H   H40       1.0  0.79870  0.07013  0.67028  1.0000
  O   O47       1.0  0.73505  0.07063  0.62701  1.0000
  O   O48       1.0  0.68346  0.07174  0.71320  1.0000
  C   C153      1.0  0.81985  0.52511  0.95194  1.0000
  C   C154      1.0  0.81956  0.53570  0.01542  1.0000
  C   C155      1.0  0.81895  0.51055  0.06371  1.0000
  C   C156      1.0  0.81862  0.47481  0.04852  1.0000
  C   C157      1.0  0.81891  0.46423  0.98504  1.0000
  C   C158      1.0  0.81952  0.48937  0.93675  1.0000
  H   H41       1.0  0.82032  0.54397  0.91572  1.0000
  O   O49       1.0  0.81986  0.56786  0.02909  1.0000
  O   O50       1.0  0.81869  0.52008  0.12085  1.0000
  H   H42       1.0  0.81815  0.45595  0.08474  1.0000
  O   O51       1.0  0.81861  0.43206  0.97137  1.0000
  O   O52       1.0  0.81978  0.47984  0.87962  1.0000
  C   C159      1.0  0.22408  0.07055  0.70527  1.0000
  C   C160      1.0  0.21560  0.07089  0.76983  1.0000
  C   C161      1.0  0.24275  0.07150  0.81518  1.0000
  C   C162      1.0  0.27840  0.07177  0.79598  1.0000
  C   C163      1.0  0.28688  0.07143  0.73142  1.0000
  C   C164      1.0  0.25973  0.07083  0.68607  1.0000
  H   H43       1.0  0.20371  0.07010  0.67126  1.0000
  O   O53       1.0  0.18352  0.07065  0.78711  1.0000
  O   O54       1.0  0.23512  0.07181  0.87328  1.0000
  H   H44       1.0  0.29876  0.07223  0.82999  1.0000
  O   O55       1.0  0.31896  0.07168  0.71414  1.0000
  O   O56       1.0  0.26736  0.07052  0.62797  1.0000
  C   C165      1.0  0.68238  0.52522  0.54851  1.0000
  C   C166      1.0  0.68272  0.53580  0.48503  1.0000
  C   C167      1.0  0.68336  0.51064  0.43675  1.0000
  C   C168      1.0  0.68365  0.47491  0.45195  1.0000
  C   C169      1.0  0.68331  0.46433  0.51543  1.0000
  C   C170      1.0  0.68268  0.48948  0.56371  1.0000
  H   H45       1.0  0.68191  0.54408  0.58472  1.0000
  O   O57       1.0  0.68246  0.56796  0.47135  1.0000
  O   O58       1.0  0.68366  0.52017  0.37961  1.0000
  H   H46       1.0  0.68412  0.45604  0.41574  1.0000
  O   O59       1.0  0.68358  0.43217  0.52911  1.0000
  O   O60       1.0  0.68237  0.47996  0.62085  1.0000
  C   C171      1.0  0.22390  0.92826  0.29595  1.0000
  C   C172      1.0  0.25955  0.92853  0.31514  1.0000
  C   C173      1.0  0.28670  0.92913  0.26978  1.0000
  C   C174      1.0  0.27821  0.92947  0.20523  1.0000
  C   C175      1.0  0.24256  0.92920  0.18604  1.0000
  C   C176      1.0  0.21541  0.92859  0.23140  1.0000
  H   H47       1.0  0.20354  0.92780  0.32997  1.0000
  O   O61       1.0  0.26719  0.92823  0.37324  1.0000
  O   O62       1.0  0.31878  0.92938  0.28705  1.0000
  H   H48       1.0  0.29857  0.92992  0.17121  1.0000
  O   O63       1.0  0.23492  0.92950  0.12794  1.0000
  O   O64       1.0  0.18333  0.92835  0.21413  1.0000
  C   C177      1.0  0.68239  0.97490  0.54792  1.0000
  C   C178      1.0  0.68267  0.96432  0.48443  1.0000
  C   C179      1.0  0.68329  0.98947  0.43615  1.0000
  C   C180      1.0  0.68363  0.02521  0.45136  1.0000
  C   C181      1.0  0.68335  0.03579  0.51485  1.0000
  C   C182      1.0  0.68273  0.01063  0.56313  1.0000
  H   H49       1.0  0.68193  0.95603  0.58413  1.0000
  O   O65       1.0  0.68237  0.93216  0.47075  1.0000
  O   O66       1.0  0.68354  0.97995  0.37902  1.0000
  H   H50       1.0  0.68409  0.04408  0.41515  1.0000
  O   O67       1.0  0.68366  0.06795  0.52853  1.0000
  O   O68       1.0  0.68248  0.02016  0.62026  1.0000
  C   C183      1.0  0.22388  0.42824  0.70416  1.0000
  C   C184      1.0  0.25952  0.42851  0.68497  1.0000
  C   C185      1.0  0.28667  0.42912  0.73033  1.0000
  C   C186      1.0  0.27818  0.42945  0.79488  1.0000
  C   C187      1.0  0.24253  0.42918  0.81407  1.0000
  C   C188      1.0  0.21538  0.42858  0.76870  1.0000
  H   H51       1.0  0.20351  0.42779  0.67013  1.0000
  O   O69       1.0  0.26717  0.42821  0.62688  1.0000
  O   O70       1.0  0.31875  0.42936  0.71307  1.0000
  H   H52       1.0  0.29854  0.42990  0.82891  1.0000
  O   O71       1.0  0.23489  0.42948  0.87216  1.0000
  O   O72       1.0  0.18330  0.42834  0.78597  1.0000
  C   C189      1.0  0.81985  0.97479  0.95135  1.0000
  C   C190      1.0  0.81951  0.96420  0.01483  1.0000
  C   C191      1.0  0.81887  0.98935  0.06313  1.0000
  C   C192      1.0  0.81858  0.02509  0.04794  1.0000
  C   C193      1.0  0.81892  0.03568  0.98446  1.0000
  C   C194      1.0  0.81956  0.01053  0.93617  1.0000
  H   H53       1.0  0.82033  0.95593  0.91513  1.0000
  O   O73       1.0  0.81977  0.93204  0.02850  1.0000
  O   O74       1.0  0.81856  0.97982  0.12026  1.0000
  H   H54       1.0  0.81810  0.04395  0.08416  1.0000
  O   O75       1.0  0.81866  0.06784  0.97080  1.0000
  O   O76       1.0  0.81987  0.02006  0.87904  1.0000
  C   C195      1.0  0.27833  0.57175  0.20416  1.0000
  C   C196      1.0  0.24268  0.57147  0.18497  1.0000
  C   C197      1.0  0.21553  0.57087  0.23033  1.0000
  C   C198      1.0  0.22402  0.57054  0.29488  1.0000
  C   C199      1.0  0.25966  0.57081  0.31407  1.0000
  C   C200      1.0  0.28682  0.57142  0.26871  1.0000
  H   H55       1.0  0.29869  0.57220  0.17014  1.0000
  O   O77       1.0  0.23504  0.57177  0.12687  1.0000
  O   O78       1.0  0.18345  0.57062  0.21305  1.0000
  H   H56       1.0  0.20365  0.57008  0.32890  1.0000
  O   O79       1.0  0.26731  0.57051  0.37216  1.0000
  O   O80       1.0  0.31890  0.57166  0.28598  1.0000
  C   C201      1.0  0.31859  0.02507  0.45232  1.0000
  C   C202      1.0  0.31888  0.98934  0.43712  1.0000
  C   C203      1.0  0.31953  0.96418  0.48540  1.0000
  C   C204      1.0  0.31989  0.97477  0.54888  1.0000
  C   C205      1.0  0.31959  0.01050  0.56409  1.0000
  C   C206      1.0  0.31894  0.03566  0.51580  1.0000
  H   H57       1.0  0.31810  0.04394  0.41611  1.0000
  O   O81       1.0  0.31857  0.97981  0.37998  1.0000
  O   O82       1.0  0.31980  0.93202  0.47172  1.0000
  H   H58       1.0  0.32037  0.95590  0.58509  1.0000
  O   O83       1.0  0.31991  0.02003  0.62122  1.0000
  O   O84       1.0  0.31868  0.06782  0.52949  1.0000
  C   C207      1.0  0.77833  0.57147  0.29560  1.0000
  C   C208      1.0  0.74269  0.57134  0.31478  1.0000
  C   C209      1.0  0.71553  0.57103  0.26941  1.0000
  C   C210      1.0  0.72403  0.57086  0.20486  1.0000
  C   C211      1.0  0.75968  0.57099  0.18568  1.0000
  C   C212      1.0  0.78683  0.57130  0.23105  1.0000
  H   H59       1.0  0.79870  0.57171  0.32963  1.0000
  O   O85       1.0  0.73504  0.57149  0.37288  1.0000
  O   O86       1.0  0.68345  0.57090  0.28667  1.0000
  H   H60       1.0  0.70366  0.57062  0.17083  1.0000
  O   O87       1.0  0.76732  0.57084  0.12758  1.0000
  O   O88       1.0  0.81891  0.57143  0.21378  1.0000
  C   C213      1.0  0.18245  0.97496  0.95232  1.0000
  C   C214      1.0  0.18272  0.96437  0.01580  1.0000
  C   C215      1.0  0.18333  0.98952  0.06410  1.0000
  C   C216      1.0  0.18366  0.02526  0.04892  1.0000
  C   C217      1.0  0.18339  0.03585  0.98544  1.0000
  C   C218      1.0  0.18278  0.01070  0.93714  1.0000
  H   H61       1.0  0.18199  0.95610  0.91610  1.0000
  O   O89       1.0  0.18241  0.93221  0.02947  1.0000
  O   O90       1.0  0.18357  0.97999  0.12123  1.0000
  H   H62       1.0  0.18412  0.04412  0.08514  1.0000
  O   O91       1.0  0.18370  0.06801  0.97177  1.0000
  O   O92       1.0  0.18254  0.02023  0.88001  1.0000
  C   C219      1.0  0.77822  0.42828  0.70487  1.0000
  C   C220      1.0  0.74257  0.42859  0.68569  1.0000
  C   C221      1.0  0.71542  0.42918  0.73105  1.0000
  C   C222      1.0  0.72392  0.42945  0.79560  1.0000
  C   C223      1.0  0.75956  0.42913  0.81479  1.0000
  C   C224      1.0  0.78671  0.42855  0.76942  1.0000
  H   H63       1.0  0.79858  0.42784  0.67084  1.0000
  O   O93       1.0  0.73492  0.42835  0.62759  1.0000
  O   O94       1.0  0.68334  0.42946  0.71379  1.0000
  H   H64       1.0  0.70356  0.42989  0.82963  1.0000
  O   O95       1.0  0.76721  0.42938  0.87288  1.0000
  O   O96       1.0  0.81880  0.42826  0.78668  1.0000
