data_image0
_chemical_formula_structural       C6O6FeC6O6FeC6O6FeC6O6FeC6O6FeC6O6FeC6O6FeC6O6FeC6O2HO2HCuC6O2HO2HCuC6O2HO2HCuC6O2HO2HCuC6O2HO2HCuC6O2HO2HCuC6O2HO2HCuC6O2HO2HCuC6O2HO2HCuC6O2HO2HCuC6O2HO2HCuC6O2HO2HCuC6O2HO2HCuC6O2HO2HCuC6O2HO2HCuC6O2HO2HCu2C6HO2HO2CuC6HO2HO2C6HO2HO2C6HO2HO2Cu2
_chemical_formula_sum              "C168 O128 Fe8 H40 Cu20"
_cell_length_a       39.0268
_cell_length_b       39.143
_cell_length_c       34.2419
_cell_angle_alpha    89.9956
_cell_angle_beta     90
_cell_angle_gamma    90

_space_group_name_H-M_alt    "P 1"
_space_group_IT_number       1

loop_
  _space_group_symop_operation_xyz
  'x, y, z'

loop_
  _atom_site_type_symbol
  _atom_site_label
  _atom_site_symmetry_multiplicity
  _atom_site_fract_x
  _atom_site_fract_y
  _atom_site_fract_z
  _atom_site_occupancy
  C   C1        1.0  0.12596  0.98978  0.01681  1.0000
  C   C2        1.0  0.12596  0.01043  0.98343  1.0000
  C   C3        1.0  0.09490  0.02075  0.96673  1.0000
  C   C4        1.0  0.06383  0.01042  0.98342  1.0000
  C   C5        1.0  0.06383  0.98977  0.01680  1.0000
  C   C6        1.0  0.09489  0.97945  0.03350  1.0000
  O   O1        1.0  0.15392  0.98049  0.03184  1.0000
  O   O2        1.0  0.15392  0.01972  0.96841  1.0000
  O   O3        1.0  0.09490  0.03934  0.93668  1.0000
  O   O4        1.0  0.03587  0.01971  0.96839  1.0000
  O   O5        1.0  0.03587  0.98048  0.03182  1.0000
  O   O6        1.0  0.09489  0.96086  0.06354  1.0000
  Fe  Fe1       1.0  0.24997  0.84543  0.25015  1.0000
  C   C7        1.0  0.40509  0.97945  0.46674  1.0000
  C   C8        1.0  0.43616  0.98978  0.48342  1.0000
  C   C9        1.0  0.43616  0.01043  0.51680  1.0000
  C   C10       1.0  0.40510  0.02075  0.53350  1.0000
  C   C11       1.0  0.37403  0.01042  0.51681  1.0000
  C   C12       1.0  0.37403  0.98977  0.48343  1.0000
  O   O7        1.0  0.40509  0.96086  0.43669  1.0000
  O   O8        1.0  0.46412  0.98049  0.46840  1.0000
  O   O9        1.0  0.46412  0.01972  0.53182  1.0000
  O   O10       1.0  0.40510  0.03934  0.56354  1.0000
  O   O11       1.0  0.34607  0.01971  0.53183  1.0000
  O   O12       1.0  0.34607  0.98048  0.46841  1.0000
  Fe  Fe2       1.0  0.25000  0.15473  0.75012  1.0000
  C   C13       1.0  0.87404  0.01043  0.98341  1.0000
  C   C14       1.0  0.87404  0.98978  0.01679  1.0000
  C   C15       1.0  0.90511  0.97945  0.03348  1.0000
  C   C16       1.0  0.93617  0.98977  0.01679  1.0000
  C   C17       1.0  0.93617  0.01042  0.98341  1.0000
  C   C18       1.0  0.90511  0.02075  0.96672  1.0000
  O   O13       1.0  0.84608  0.01972  0.96839  1.0000
  O   O14       1.0  0.84608  0.98048  0.03182  1.0000
  O   O15       1.0  0.90511  0.96086  0.06353  1.0000
  O   O16       1.0  0.96413  0.98048  0.03182  1.0000
  O   O17       1.0  0.96413  0.01972  0.96839  1.0000
  O   O18       1.0  0.90511  0.03934  0.93667  1.0000
  Fe  Fe3       1.0  0.75002  0.15473  0.75010  1.0000
  C   C19       1.0  0.62597  0.98978  0.48340  1.0000
  C   C20       1.0  0.62597  0.01043  0.51678  1.0000
  C   C21       1.0  0.59491  0.02076  0.53347  1.0000
  C   C22       1.0  0.56384  0.01043  0.51678  1.0000
  C   C23       1.0  0.56384  0.98978  0.48340  1.0000
  C   C24       1.0  0.59490  0.97945  0.46671  1.0000
  O   O19       1.0  0.65393  0.98049  0.46838  1.0000
  O   O20       1.0  0.65393  0.01972  0.53180  1.0000
  O   O21       1.0  0.59491  0.03934  0.56352  1.0000
  O   O22       1.0  0.53588  0.01973  0.53181  1.0000
  O   O23       1.0  0.53588  0.98049  0.46838  1.0000
  O   O24       1.0  0.59490  0.96087  0.43667  1.0000
  Fe  Fe4       1.0  0.75002  0.84543  0.25013  1.0000
  C   C25       1.0  0.62596  0.48977  0.51684  1.0000
  C   C26       1.0  0.62596  0.51042  0.48346  1.0000
  C   C27       1.0  0.59490  0.52075  0.46676  1.0000
  C   C28       1.0  0.56383  0.51042  0.48345  1.0000
  C   C29       1.0  0.56383  0.48977  0.51684  1.0000
  C   C30       1.0  0.59489  0.47945  0.53353  1.0000
  O   O25       1.0  0.65392  0.48048  0.53186  1.0000
  O   O26       1.0  0.65392  0.51972  0.46844  1.0000
  O   O27       1.0  0.59490  0.53933  0.43672  1.0000
  O   O28       1.0  0.53587  0.51972  0.46843  1.0000
  O   O29       1.0  0.53587  0.48048  0.53186  1.0000
  O   O30       1.0  0.59489  0.46086  0.56358  1.0000
  Fe  Fe5       1.0  0.74998  0.34543  0.75015  1.0000
  C   C31       1.0  0.90510  0.47942  0.96677  1.0000
  C   C32       1.0  0.93616  0.48974  0.98346  1.0000
  C   C33       1.0  0.93617  0.51039  0.01684  1.0000
  C   C34       1.0  0.90510  0.52071  0.03353  1.0000
  C   C35       1.0  0.87403  0.51039  0.01684  1.0000
  C   C36       1.0  0.87403  0.48974  0.98346  1.0000
  O   O31       1.0  0.90510  0.46083  0.93672  1.0000
  O   O32       1.0  0.96412  0.48045  0.96843  1.0000
  O   O33       1.0  0.96413  0.51968  0.03186  1.0000
  O   O34       1.0  0.90510  0.53930  0.06357  1.0000
  O   O35       1.0  0.84607  0.51968  0.03186  1.0000
  O   O36       1.0  0.84607  0.48045  0.96844  1.0000
  Fe  Fe6       1.0  0.75001  0.65473  0.25013  1.0000
  C   C37       1.0  0.37404  0.51041  0.48344  1.0000
  C   C38       1.0  0.37404  0.48976  0.51682  1.0000
  C   C39       1.0  0.40510  0.47943  0.53351  1.0000
  C   C40       1.0  0.43617  0.48976  0.51682  1.0000
  C   C41       1.0  0.43617  0.51041  0.48344  1.0000
  C   C42       1.0  0.40511  0.52073  0.46675  1.0000
  O   O37       1.0  0.34608  0.51970  0.46841  1.0000
  O   O38       1.0  0.34608  0.48046  0.53184  1.0000
  O   O39       1.0  0.40510  0.46085  0.56356  1.0000
  O   O40       1.0  0.46413  0.48047  0.53185  1.0000
  O   O41       1.0  0.46413  0.51970  0.46842  1.0000
  O   O42       1.0  0.40511  0.53932  0.43670  1.0000
  Fe  Fe7       1.0  0.25001  0.65473  0.25012  1.0000
  C   C43       1.0  0.12597  0.48975  0.98344  1.0000
  C   C44       1.0  0.12597  0.51040  0.01682  1.0000
  C   C45       1.0  0.09490  0.52073  0.03351  1.0000
  C   C46       1.0  0.06384  0.51040  0.01682  1.0000
  C   C47       1.0  0.06384  0.48975  0.98344  1.0000
  C   C48       1.0  0.09490  0.47943  0.96675  1.0000
  O   O43       1.0  0.15393  0.48046  0.96841  1.0000
  O   O44       1.0  0.15393  0.51970  0.03184  1.0000
  O   O45       1.0  0.09490  0.53931  0.06355  1.0000
  O   O46       1.0  0.03588  0.51969  0.03184  1.0000
  O   O47       1.0  0.03587  0.48046  0.96842  1.0000
  O   O48       1.0  0.09490  0.46084  0.93671  1.0000
  Fe  Fe8       1.0  0.25000  0.34543  0.75014  1.0000
  C   C49       1.0  0.23131  0.10994  0.81187  1.0000
  C   C50       1.0  0.19848  0.12967  0.80134  1.0000
  C   C51       1.0  0.16496  0.12255  0.82357  1.0000
  C   C52       1.0  0.16419  0.09566  0.85639  1.0000
  C   C53       1.0  0.19710  0.07585  0.86698  1.0000
  C   C54       1.0  0.23059  0.08305  0.84467  1.0000
  O   O49       1.0  0.26420  0.11693  0.79005  1.0000
  O   O50       1.0  0.19919  0.15604  0.76917  1.0000
  H   H1        1.0  0.14069  0.13719  0.81573  1.0000
  O   O51       1.0  0.13120  0.08875  0.87815  1.0000
  O   O52       1.0  0.19655  0.04940  0.89919  1.0000
  H   H2        1.0  0.25489  0.06844  0.85247  1.0000
  Cu  Cu1       1.0  0.14374  0.04912  0.92097  1.0000
  C   C55       1.0  0.23130  0.89018  0.18836  1.0000
  C   C56       1.0  0.19844  0.87052  0.19896  1.0000
  C   C57       1.0  0.16492  0.87768  0.17676  1.0000
  C   C58       1.0  0.16416  0.90452  0.14390  1.0000
  C   C59       1.0  0.19710  0.92427  0.13323  1.0000
  C   C60       1.0  0.23060  0.91703  0.15551  1.0000
  O   O53       1.0  0.26420  0.88315  0.21014  1.0000
  O   O54       1.0  0.19914  0.84419  0.23116  1.0000
  H   H3        1.0  0.14063  0.86309  0.18466  1.0000
  O   O55       1.0  0.13116  0.91147  0.12217  1.0000
  O   O56       1.0  0.19656  0.95068  0.10099  1.0000
  H   H4        1.0  0.25492  0.93159  0.14766  1.0000
  Cu  Cu2       1.0  0.14373  0.95103  0.07927  1.0000
  C   C61       1.0  0.30141  0.87058  0.30137  1.0000
  C   C62       1.0  0.26855  0.89023  0.31196  1.0000
  C   C63       1.0  0.26915  0.91710  0.34476  1.0000
  C   C64       1.0  0.30261  0.92438  0.36707  1.0000
  C   C65       1.0  0.33560  0.90469  0.35649  1.0000
  C   C66       1.0  0.33490  0.87783  0.32364  1.0000
  O   O57       1.0  0.30083  0.84422  0.26918  1.0000
  O   O58       1.0  0.23571  0.88313  0.29012  1.0000
  H   H5        1.0  0.24478  0.93161  0.35254  1.0000
  O   O59       1.0  0.30307  0.95080  0.39928  1.0000
  O   O60       1.0  0.36859  0.91170  0.37826  1.0000
  H   H6        1.0  0.35924  0.86328  0.31581  1.0000
  Cu  Cu3       1.0  0.35581  0.95129  0.42112  1.0000
  C   C67       1.0  0.26867  0.10998  0.68832  1.0000
  C   C68       1.0  0.30152  0.12964  0.69893  1.0000
  C   C69       1.0  0.33505  0.12248  0.67674  1.0000
  C   C70       1.0  0.33582  0.09564  0.64388  1.0000
  C   C71       1.0  0.30288  0.07589  0.63321  1.0000
  C   C72       1.0  0.26938  0.08313  0.65548  1.0000
  O   O61       1.0  0.23577  0.11701  0.71010  1.0000
  O   O62       1.0  0.30083  0.15597  0.73113  1.0000
  H   H7        1.0  0.35934  0.13707  0.68464  1.0000
  O   O63       1.0  0.36882  0.08869  0.62216  1.0000
  O   O64       1.0  0.30341  0.04948  0.60097  1.0000
  H   H8        1.0  0.24506  0.06857  0.64763  1.0000
  Cu  Cu4       1.0  0.35625  0.04913  0.57927  1.0000
  C   C73       1.0  0.80146  0.87057  0.19890  1.0000
  C   C74       1.0  0.76859  0.89022  0.18831  1.0000
  C   C75       1.0  0.76918  0.91708  0.15550  1.0000
  C   C76       1.0  0.80264  0.92436  0.13318  1.0000
  C   C77       1.0  0.83563  0.90467  0.14376  1.0000
  C   C78       1.0  0.83494  0.87781  0.17662  1.0000
  O   O65       1.0  0.80088  0.84422  0.23110  1.0000
  O   O66       1.0  0.73576  0.88312  0.21016  1.0000
  H   H9        1.0  0.74482  0.93160  0.14772  1.0000
  O   O67       1.0  0.80310  0.95078  0.10096  1.0000
  O   O68       1.0  0.86861  0.91168  0.12197  1.0000
  H   H10       1.0  0.85928  0.86327  0.18444  1.0000
  Cu  Cu5       1.0  0.85583  0.95127  0.07911  1.0000
  C   C79       1.0  0.76869  0.10997  0.81188  1.0000
  C   C80       1.0  0.80154  0.12963  0.80128  1.0000
  C   C81       1.0  0.83507  0.12247  0.82348  1.0000
  C   C82       1.0  0.83583  0.09562  0.85633  1.0000
  C   C83       1.0  0.80290  0.07587  0.86699  1.0000
  C   C84       1.0  0.76940  0.08311  0.84472  1.0000
  O   O69       1.0  0.73579  0.11700  0.79010  1.0000
  O   O70       1.0  0.80085  0.15597  0.76908  1.0000
  H   H11       1.0  0.85936  0.13706  0.81558  1.0000
  O   O71       1.0  0.86884  0.08867  0.87805  1.0000
  O   O72       1.0  0.80343  0.04945  0.89923  1.0000
  H   H12       1.0  0.74508  0.06855  0.85257  1.0000
  Cu  Cu6       1.0  0.85626  0.04910  0.92094  1.0000
  C   C85       1.0  0.73130  0.10984  0.68846  1.0000
  C   C86       1.0  0.69854  0.12979  0.69875  1.0000
  C   C87       1.0  0.66506  0.12278  0.67640  1.0000
  C   C88       1.0  0.66424  0.09579  0.64370  1.0000
  C   C89       1.0  0.69708  0.07576  0.63334  1.0000
  C   C90       1.0  0.73054  0.08285  0.65577  1.0000
  O   O73       1.0  0.76415  0.11672  0.71038  1.0000
  O   O74       1.0  0.69929  0.15626  0.73080  1.0000
  H   H13       1.0  0.64085  0.13758  0.68408  1.0000
  O   O75       1.0  0.63129  0.08899  0.62183  1.0000
  O   O76       1.0  0.69649  0.04921  0.60125  1.0000
  H   H14       1.0  0.75478  0.06807  0.64814  1.0000
  Cu  Cu7       1.0  0.64376  0.04915  0.57924  1.0000
  C   C91       1.0  0.73134  0.89019  0.31191  1.0000
  C   C92       1.0  0.69849  0.87052  0.30131  1.0000
  C   C93       1.0  0.66496  0.87769  0.32350  1.0000
  C   C94       1.0  0.66419  0.90454  0.35635  1.0000
  C   C95       1.0  0.69713  0.92429  0.36702  1.0000
  C   C96       1.0  0.73063  0.91705  0.34475  1.0000
  O   O77       1.0  0.76424  0.88316  0.29014  1.0000
  O   O78       1.0  0.69918  0.84419  0.26911  1.0000
  H   H15       1.0  0.64067  0.86310  0.31560  1.0000
  O   O79       1.0  0.63119  0.91149  0.37807  1.0000
  O   O80       1.0  0.69659  0.95070  0.39925  1.0000
  H   H16       1.0  0.75495  0.93161  0.35260  1.0000
  Cu  Cu8       1.0  0.64375  0.95105  0.42095  1.0000
  C   C97       1.0  0.69906  0.63083  0.30277  1.0000
  C   C98       1.0  0.73093  0.60868  0.31053  1.0000
  C   C99       1.0  0.72983  0.58057  0.34193  1.0000
  C   C100      1.0  0.69686  0.57453  0.36565  1.0000
  C   C101      1.0  0.66488  0.59672  0.35790  1.0000
  C   C102      1.0  0.66608  0.62483  0.32646  1.0000
  O   O81       1.0  0.70014  0.65841  0.27197  1.0000
  O   O82       1.0  0.76327  0.61456  0.28730  1.0000
  H   H17       1.0  0.75344  0.56420  0.34762  1.0000
  O   O83       1.0  0.69590  0.54688  0.39646  1.0000
  O   O84       1.0  0.63239  0.59095  0.38108  1.0000
  H   H18       1.0  0.64249  0.64122  0.32072  1.0000
  Cu  Cu9       1.0  0.64417  0.54887  0.42112  1.0000
  C   C103      1.0  0.73131  0.39019  0.68837  1.0000
  C   C104      1.0  0.69846  0.37052  0.69897  1.0000
  C   C105      1.0  0.66493  0.37769  0.67677  1.0000
  C   C106      1.0  0.66417  0.40454  0.64392  1.0000
  C   C107      1.0  0.69710  0.42429  0.63325  1.0000
  C   C108      1.0  0.73061  0.41705  0.65553  1.0000
  O   O85       1.0  0.76421  0.38316  0.71015  1.0000
  O   O86       1.0  0.69915  0.34419  0.73117  1.0000
  H   H19       1.0  0.64064  0.36310  0.68467  1.0000
  O   O87       1.0  0.63117  0.41149  0.62219  1.0000
  O   O88       1.0  0.69657  0.45070  0.60101  1.0000
  H   H20       1.0  0.75492  0.43161  0.64768  1.0000
  Cu  Cu10      1.0  0.64374  0.45105  0.57930  1.0000
  C   C109      1.0  0.80143  0.37058  0.80138  1.0000
  C   C110      1.0  0.76856  0.39023  0.81196  1.0000
  C   C111      1.0  0.76916  0.41709  0.84478  1.0000
  C   C112      1.0  0.80262  0.42437  0.86709  1.0000
  C   C113      1.0  0.83561  0.40468  0.85650  1.0000
  C   C114      1.0  0.83492  0.37782  0.82365  1.0000
  O   O89       1.0  0.80084  0.34423  0.76918  1.0000
  O   O90       1.0  0.73572  0.38313  0.79012  1.0000
  H   H21       1.0  0.74479  0.43160  0.85256  1.0000
  O   O91       1.0  0.80308  0.45078  0.89930  1.0000
  O   O92       1.0  0.86859  0.41169  0.87828  1.0000
  H   H22       1.0  0.85925  0.36328  0.81582  1.0000
  Cu  Cu11      1.0  0.85582  0.45128  0.92114  1.0000
  C   C115      1.0  0.76868  0.60997  0.18835  1.0000
  C   C116      1.0  0.80153  0.62963  0.19895  1.0000
  C   C117      1.0  0.83506  0.62247  0.17676  1.0000
  C   C118      1.0  0.83582  0.59562  0.14391  1.0000
  C   C119      1.0  0.80289  0.57588  0.13324  1.0000
  C   C120      1.0  0.76938  0.58312  0.15551  1.0000
  O   O93       1.0  0.73578  0.61700  0.21012  1.0000
  O   O94       1.0  0.80084  0.65596  0.23115  1.0000
  H   H23       1.0  0.85935  0.63706  0.18466  1.0000
  O   O95       1.0  0.86883  0.58867  0.12218  1.0000
  O   O96       1.0  0.80342  0.54946  0.10100  1.0000
  H   H24       1.0  0.74506  0.56856  0.14765  1.0000
  Cu  Cu12      1.0  0.85625  0.54912  0.07929  1.0000
  C   C121      1.0  0.30145  0.37058  0.69891  1.0000
  C   C122      1.0  0.26858  0.39023  0.68833  1.0000
  C   C123      1.0  0.26917  0.41710  0.65552  1.0000
  C   C124      1.0  0.30264  0.42438  0.63320  1.0000
  C   C125      1.0  0.33563  0.40469  0.64378  1.0000
  C   C126      1.0  0.33493  0.37783  0.67663  1.0000
  O   O97       1.0  0.30086  0.34422  0.73110  1.0000
  O   O98       1.0  0.23575  0.38313  0.71017  1.0000
  H   H25       1.0  0.24481  0.43161  0.64774  1.0000
  O   O99       1.0  0.30310  0.45080  0.60099  1.0000
  O   O100      1.0  0.36861  0.41169  0.62200  1.0000
  H   H26       1.0  0.35927  0.36328  0.68446  1.0000
  Cu  Cu13      1.0  0.35583  0.45129  0.57914  1.0000
  C   C127      1.0  0.26868  0.60997  0.31191  1.0000
  C   C128      1.0  0.30153  0.62964  0.30131  1.0000
  C   C129      1.0  0.33506  0.62248  0.32350  1.0000
  C   C130      1.0  0.33583  0.59563  0.35636  1.0000
  C   C131      1.0  0.30289  0.57588  0.36702  1.0000
  C   C132      1.0  0.26939  0.58312  0.34475  1.0000
  O   O101      1.0  0.23578  0.61700  0.29013  1.0000
  O   O102      1.0  0.30084  0.65597  0.26910  1.0000
  H   H27       1.0  0.35935  0.63707  0.31560  1.0000
  O   O103      1.0  0.36883  0.58869  0.37808  1.0000
  O   O104      1.0  0.30343  0.54947  0.39927  1.0000
  H   H28       1.0  0.24507  0.56856  0.35260  1.0000
  Cu  Cu14      1.0  0.35626  0.54913  0.42098  1.0000
  C   C133      1.0  0.19856  0.62957  0.19889  1.0000
  C   C134      1.0  0.23143  0.60993  0.18831  1.0000
  C   C135      1.0  0.23084  0.58306  0.15550  1.0000
  C   C136      1.0  0.19737  0.57578  0.13319  1.0000
  C   C137      1.0  0.16438  0.59547  0.14377  1.0000
  C   C138      1.0  0.16508  0.62233  0.17662  1.0000
  O   O105      1.0  0.19915  0.65593  0.23108  1.0000
  O   O106      1.0  0.26427  0.61703  0.21015  1.0000
  H   H29       1.0  0.25520  0.56855  0.14772  1.0000
  O   O107      1.0  0.19692  0.54936  0.10098  1.0000
  O   O108      1.0  0.13140  0.58846  0.12199  1.0000
  H   H30       1.0  0.14074  0.63687  0.18445  1.0000
  Cu  Cu15      1.0  0.14418  0.54887  0.07914  1.0000
  C   C139      1.0  0.23133  0.39018  0.81192  1.0000
  C   C140      1.0  0.19848  0.37052  0.80132  1.0000
  C   C141      1.0  0.16495  0.37768  0.82351  1.0000
  C   C142      1.0  0.16418  0.40453  0.85637  1.0000
  C   C143      1.0  0.19712  0.42427  0.86704  1.0000
  C   C144      1.0  0.23062  0.41703  0.84477  1.0000
  O   O109      1.0  0.26423  0.38316  0.79015  1.0000
  O   O110      1.0  0.19917  0.34419  0.76912  1.0000
  H   H31       1.0  0.14066  0.36310  0.81561  1.0000
  O   O111      1.0  0.13118  0.41148  0.87809  1.0000
  O   O112      1.0  0.19658  0.45068  0.89928  1.0000
  H   H32       1.0  0.25494  0.43159  0.85262  1.0000
  Cu  Cu16      1.0  0.14375  0.45103  0.92098  1.0000
  Cu  Cu17      1.0  0.99990  0.00010  0.00010  1.0000
  C   C145      1.0  0.23803  0.75006  0.28868  1.0000
  C   C146      1.0  0.24400  0.78105  0.26942  1.0000
  C   C147      1.0  0.25596  0.78106  0.23087  1.0000
  C   C148      1.0  0.26194  0.75009  0.21159  1.0000
  C   C149      1.0  0.25597  0.71911  0.23085  1.0000
  C   C150      1.0  0.24402  0.71910  0.26940  1.0000
  H   H33       1.0  0.22906  0.75005  0.31759  1.0000
  O   O113      1.0  0.23861  0.80892  0.28677  1.0000
  O   O114      1.0  0.26133  0.80894  0.21353  1.0000
  H   H34       1.0  0.27091  0.75010  0.18268  1.0000
  O   O115      1.0  0.26136  0.69124  0.21350  1.0000
  O   O116      1.0  0.23864  0.69121  0.28674  1.0000
  Cu  Cu18      1.0  0.50000  0.00010  0.50010  1.0000
  C   C151      1.0  0.26196  0.25007  0.78867  1.0000
  C   C152      1.0  0.25598  0.21910  0.76939  1.0000
  C   C153      1.0  0.24402  0.21911  0.73085  1.0000
  C   C154      1.0  0.23804  0.25009  0.71158  1.0000
  C   C155      1.0  0.24402  0.28106  0.73086  1.0000
  C   C156      1.0  0.25598  0.28105  0.76940  1.0000
  H   H35       1.0  0.27093  0.25007  0.81758  1.0000
  O   O117      1.0  0.26136  0.19122  0.78674  1.0000
  O   O118      1.0  0.23864  0.19124  0.71350  1.0000
  H   H36       1.0  0.22907  0.25009  0.68267  1.0000
  O   O119      1.0  0.23864  0.30894  0.71352  1.0000
  O   O120      1.0  0.26136  0.30893  0.78676  1.0000
  C   C157      1.0  0.76196  0.25010  0.71158  1.0000
  C   C158      1.0  0.75599  0.21912  0.73084  1.0000
  C   C159      1.0  0.74403  0.21910  0.76938  1.0000
  C   C160      1.0  0.73804  0.25006  0.78867  1.0000
  C   C161      1.0  0.74401  0.28105  0.76941  1.0000
  C   C162      1.0  0.75597  0.28106  0.73086  1.0000
  H   H37       1.0  0.77093  0.25011  0.68267  1.0000
  O   O121      1.0  0.76138  0.19125  0.71348  1.0000
  O   O122      1.0  0.73866  0.19121  0.78672  1.0000
  H   H38       1.0  0.72908  0.25005  0.81758  1.0000
  O   O123      1.0  0.73863  0.30892  0.78677  1.0000
  O   O124      1.0  0.76135  0.30895  0.71353  1.0000
  C   C163      1.0  0.76197  0.75007  0.28868  1.0000
  C   C164      1.0  0.75599  0.71910  0.26941  1.0000
  C   C165      1.0  0.74403  0.71911  0.23086  1.0000
  C   C166      1.0  0.73805  0.75008  0.21159  1.0000
  C   C167      1.0  0.74403  0.78106  0.23086  1.0000
  C   C168      1.0  0.75599  0.78105  0.26941  1.0000
  H   H39       1.0  0.77094  0.75007  0.31759  1.0000
  O   O125      1.0  0.76137  0.69122  0.28675  1.0000
  O   O126      1.0  0.73865  0.69123  0.21351  1.0000
  H   H40       1.0  0.72909  0.75009  0.18268  1.0000
  O   O127      1.0  0.73866  0.80893  0.21352  1.0000
  O   O128      1.0  0.76138  0.80893  0.28676  1.0000
  Cu  Cu19      1.0  0.50000  0.50009  0.50014  1.0000
  Cu  Cu20      1.0  0.99990  0.50007  0.00010  1.0000
