data_image0
_chemical_formula_structural       C6O6FeC6O6FeC6O6FeC6O6FeC6O6FeC6O6FeC6O6FeC6O6FeCuC6HO2HO2CuC6HO2HO2C6HO2HO2C6HO2HO2Cu2
_chemical_formula_sum              "C72 O64 Fe8 Cu4 H8"
_cell_length_a       22.298
_cell_length_b       22.4143
_cell_length_c       10.5821
_cell_angle_alpha    90.0063
_cell_angle_beta     90
_cell_angle_gamma    90

_space_group_name_H-M_alt    "P 1"
_space_group_IT_number       1

loop_
  _space_group_symop_operation_xyz
  'x, y, z'

loop_
  _atom_site_type_symbol
  _atom_site_label
  _atom_site_symmetry_multiplicity
  _atom_site_fract_x
  _atom_site_fract_y
  _atom_site_fract_z
  _atom_site_occupancy
  C   C1        1.0  0.22047  0.98207  0.05410  1.0000
  C   C2        1.0  0.22047  0.01814  0.94610  1.0000
  C   C3        1.0  0.16610  0.03617  0.89210  1.0000
  C   C4        1.0  0.11172  0.01814  0.94610  1.0000
  C   C5        1.0  0.11172  0.98207  0.05410  1.0000
  C   C6        1.0  0.16610  0.96403  0.10810  1.0000
  O   O1        1.0  0.26941  0.96583  0.10270  1.0000
  O   O2        1.0  0.26941  0.03437  0.89750  1.0000
  O   O3        1.0  0.16610  0.06864  0.79490  1.0000
  O   O4        1.0  0.06279  0.03437  0.89750  1.0000
  O   O5        1.0  0.06279  0.96583  0.10270  1.0000
  O   O6        1.0  0.16610  0.93157  0.20530  1.0000
  Fe  Fe1       1.0  0.25000  0.91650  0.25000  1.0000
  C   C7        1.0  0.33391  0.96403  0.39199  1.0000
  C   C8        1.0  0.38828  0.98206  0.44600  1.0000
  C   C9        1.0  0.38828  0.01814  0.55401  1.0000
  C   C10       1.0  0.33391  0.03617  0.60801  1.0000
  C   C11       1.0  0.27953  0.01814  0.55401  1.0000
  C   C12       1.0  0.27953  0.98206  0.44600  1.0000
  O   O7        1.0  0.33391  0.93156  0.29478  1.0000
  O   O8        1.0  0.43722  0.96583  0.39739  1.0000
  O   O9        1.0  0.43722  0.03437  0.60261  1.0000
  O   O10       1.0  0.33391  0.06864  0.70522  1.0000
  O   O11       1.0  0.23060  0.03437  0.60261  1.0000
  O   O12       1.0  0.23060  0.96583  0.39739  1.0000
  Fe  Fe2       1.0  0.25000  0.08350  0.75000  1.0000
  C   C13       1.0  0.77953  0.01813  0.94610  1.0000
  C   C14       1.0  0.77953  0.98206  0.05410  1.0000
  C   C15       1.0  0.83390  0.96403  0.10810  1.0000
  C   C16       1.0  0.88828  0.98206  0.05410  1.0000
  C   C17       1.0  0.88828  0.01813  0.94610  1.0000
  C   C18       1.0  0.83390  0.03617  0.89210  1.0000
  O   O13       1.0  0.73059  0.03437  0.89750  1.0000
  O   O14       1.0  0.73059  0.96583  0.10270  1.0000
  O   O15       1.0  0.83390  0.93156  0.20530  1.0000
  O   O16       1.0  0.93721  0.96583  0.10270  1.0000
  O   O17       1.0  0.93721  0.03437  0.89750  1.0000
  O   O18       1.0  0.83390  0.06863  0.79490  1.0000
  Fe  Fe3       1.0  0.75000  0.08350  0.75000  1.0000
  C   C19       1.0  0.72047  0.98206  0.44600  1.0000
  C   C20       1.0  0.72047  0.01814  0.55401  1.0000
  C   C21       1.0  0.66609  0.03617  0.60801  1.0000
  C   C22       1.0  0.61172  0.01814  0.55401  1.0000
  C   C23       1.0  0.61172  0.98206  0.44600  1.0000
  C   C24       1.0  0.66609  0.96403  0.39199  1.0000
  O   O19       1.0  0.76940  0.96583  0.39739  1.0000
  O   O20       1.0  0.76940  0.03437  0.60261  1.0000
  O   O21       1.0  0.66609  0.06864  0.70522  1.0000
  O   O22       1.0  0.56278  0.03437  0.60261  1.0000
  O   O23       1.0  0.56278  0.96583  0.39739  1.0000
  O   O24       1.0  0.66609  0.93156  0.29478  1.0000
  Fe  Fe4       1.0  0.75000  0.91650  0.25000  1.0000
  C   C25       1.0  0.72047  0.48197  0.55400  1.0000
  C   C26       1.0  0.72047  0.51804  0.44600  1.0000
  C   C27       1.0  0.66610  0.53607  0.39200  1.0000
  C   C28       1.0  0.61172  0.51804  0.44600  1.0000
  C   C29       1.0  0.61172  0.48197  0.55400  1.0000
  C   C30       1.0  0.66610  0.46393  0.60800  1.0000
  O   O25       1.0  0.76941  0.46574  0.60260  1.0000
  O   O26       1.0  0.76941  0.53427  0.39740  1.0000
  O   O27       1.0  0.66610  0.56853  0.29479  1.0000
  O   O28       1.0  0.56279  0.53427  0.39740  1.0000
  O   O29       1.0  0.56279  0.46574  0.60260  1.0000
  O   O30       1.0  0.66610  0.43147  0.70520  1.0000
  Fe  Fe5       1.0  0.75000  0.41650  0.75002  1.0000
  C   C31       1.0  0.83391  0.46393  0.89210  1.0000
  C   C32       1.0  0.88828  0.48196  0.94610  1.0000
  C   C33       1.0  0.88828  0.51804  0.05411  1.0000
  C   C34       1.0  0.83391  0.53608  0.10811  1.0000
  C   C35       1.0  0.77953  0.51804  0.05410  1.0000
  C   C36       1.0  0.77953  0.48196  0.94610  1.0000
  O   O31       1.0  0.83391  0.43146  0.79489  1.0000
  O   O32       1.0  0.93722  0.46573  0.89750  1.0000
  O   O33       1.0  0.93722  0.53427  0.10271  1.0000
  O   O34       1.0  0.83391  0.56855  0.20531  1.0000
  O   O35       1.0  0.73060  0.53427  0.10271  1.0000
  O   O36       1.0  0.73060  0.46573  0.89749  1.0000
  Fe  Fe6       1.0  0.75000  0.58350  0.24998  1.0000
  C   C37       1.0  0.27953  0.51803  0.44600  1.0000
  C   C38       1.0  0.27953  0.48196  0.55400  1.0000
  C   C39       1.0  0.33390  0.46393  0.60800  1.0000
  C   C40       1.0  0.38828  0.48197  0.55400  1.0000
  C   C41       1.0  0.38828  0.51803  0.44600  1.0000
  C   C42       1.0  0.33390  0.53607  0.39200  1.0000
  O   O37       1.0  0.23059  0.53426  0.39740  1.0000
  O   O38       1.0  0.23059  0.46573  0.60260  1.0000
  O   O39       1.0  0.33390  0.43147  0.70521  1.0000
  O   O40       1.0  0.43721  0.46573  0.60260  1.0000
  O   O41       1.0  0.43721  0.53426  0.39740  1.0000
  O   O42       1.0  0.33390  0.56853  0.29480  1.0000
  Fe  Fe7       1.0  0.25000  0.58350  0.24998  1.0000
  C   C43       1.0  0.22047  0.48196  0.94610  1.0000
  C   C44       1.0  0.22047  0.51804  0.05411  1.0000
  C   C45       1.0  0.16609  0.53608  0.10811  1.0000
  C   C46       1.0  0.11172  0.51804  0.05411  1.0000
  C   C47       1.0  0.11172  0.48196  0.94610  1.0000
  C   C48       1.0  0.16609  0.46392  0.89209  1.0000
  O   O43       1.0  0.26940  0.46573  0.89750  1.0000
  O   O44       1.0  0.26940  0.53427  0.10271  1.0000
  O   O45       1.0  0.16609  0.56855  0.20532  1.0000
  O   O46       1.0  0.06278  0.53427  0.10271  1.0000
  O   O47       1.0  0.06278  0.46573  0.89749  1.0000
  O   O48       1.0  0.16609  0.43146  0.79489  1.0000
  Fe  Fe8       1.0  0.25000  0.41650  0.75002  1.0000
  Cu  Cu1       1.0  0.00010  0.00010  0.00010  1.0000
  C   C49       1.0  0.22908  0.75001  0.37472  1.0000
  C   C50       1.0  0.23954  0.80410  0.31236  1.0000
  C   C51       1.0  0.26046  0.80409  0.18762  1.0000
  C   C52       1.0  0.27093  0.74999  0.12525  1.0000
  C   C53       1.0  0.26046  0.69591  0.18762  1.0000
  C   C54       1.0  0.23954  0.69591  0.31235  1.0000
  H   H1        1.0  0.21338  0.75001  0.46827  1.0000
  O   O49       1.0  0.23012  0.85278  0.36849  1.0000
  O   O50       1.0  0.26988  0.85277  0.13149  1.0000
  H   H2        1.0  0.28662  0.74999  0.03170  1.0000
  O   O51       1.0  0.26988  0.64722  0.13148  1.0000
  O   O52       1.0  0.23012  0.64723  0.36848  1.0000
  Cu  Cu2       1.0  0.50000  0.00010  0.50000  1.0000
  C   C55       1.0  0.27093  0.25001  0.87475  1.0000
  C   C56       1.0  0.26046  0.19591  0.81238  1.0000
  C   C57       1.0  0.23954  0.19591  0.68764  1.0000
  C   C58       1.0  0.22908  0.24999  0.62528  1.0000
  C   C59       1.0  0.23954  0.30409  0.68765  1.0000
  C   C60       1.0  0.26046  0.30409  0.81238  1.0000
  H   H3        1.0  0.28662  0.25001  0.96830  1.0000
  O   O53       1.0  0.26988  0.14723  0.86851  1.0000
  O   O54       1.0  0.23012  0.14722  0.63151  1.0000
  H   H4        1.0  0.21338  0.24999  0.53173  1.0000
  O   O55       1.0  0.23012  0.35277  0.63152  1.0000
  O   O56       1.0  0.26988  0.35278  0.86852  1.0000
  C   C61       1.0  0.77092  0.24999  0.62528  1.0000
  C   C62       1.0  0.76046  0.19591  0.68764  1.0000
  C   C63       1.0  0.73954  0.19591  0.81238  1.0000
  C   C64       1.0  0.72907  0.25001  0.87475  1.0000
  C   C65       1.0  0.73954  0.30409  0.81238  1.0000
  C   C66       1.0  0.76046  0.30409  0.68765  1.0000
  H   H5        1.0  0.78662  0.24999  0.53173  1.0000
  O   O57       1.0  0.76988  0.14722  0.63151  1.0000
  O   O58       1.0  0.73012  0.14723  0.86851  1.0000
  H   H6        1.0  0.71338  0.25001  0.96830  1.0000
  O   O59       1.0  0.73012  0.35278  0.86852  1.0000
  O   O60       1.0  0.76988  0.35277  0.63152  1.0000
  C   C67       1.0  0.77092  0.75001  0.37472  1.0000
  C   C68       1.0  0.76046  0.69591  0.31235  1.0000
  C   C69       1.0  0.73954  0.69591  0.18762  1.0000
  C   C70       1.0  0.72907  0.75000  0.12525  1.0000
  C   C71       1.0  0.73954  0.80409  0.18762  1.0000
  C   C72       1.0  0.76046  0.80410  0.31236  1.0000
  H   H7        1.0  0.78662  0.75001  0.46827  1.0000
  O   O61       1.0  0.76988  0.64723  0.36848  1.0000
  O   O62       1.0  0.73012  0.64722  0.13148  1.0000
  H   H8        1.0  0.71338  0.74999  0.03170  1.0000
  O   O63       1.0  0.73012  0.85277  0.13149  1.0000
  O   O64       1.0  0.76988  0.85278  0.36849  1.0000
  Cu  Cu3       1.0  0.50000  0.50000  0.50000  1.0000
  Cu  Cu4       1.0  0.99990  0.50000  0.00010  1.0000
