data_image0
_chemical_formula_structural       C7NCNCNC3NCNC11NCNC7NHO2H2O2H2O2H2O2HNiC7NCNCNC3NCNC11NCNC7NHO2H2O2H2O2H2O2HNiC7NCNCNC3NCNC11NCNC7NHO2H2O2H2O2H2O2HNiC7NCNCNC3NCNC11NCNC7NHO2H2O2H2O2H2O2HNiFe8C6HO2HO2C6HO2HO2C6HO2HO2C6HO2HO2
_chemical_formula_sum              "C152 N32 H40 O48 Ni4 Fe8"
_cell_length_a       27.3173
_cell_length_b       34.243
_cell_length_c       19.3187
_cell_angle_alpha    90
_cell_angle_beta     90.001
_cell_angle_gamma    89.9997

_space_group_name_H-M_alt    "P 1"
_space_group_IT_number       1

loop_
  _space_group_symop_operation_xyz
  'x, y, z'

loop_
  _atom_site_type_symbol
  _atom_site_label
  _atom_site_symmetry_multiplicity
  _atom_site_fract_x
  _atom_site_fract_y
  _atom_site_fract_z
  _atom_site_occupancy
  C   C1        1.0  0.81235  0.94961  0.90588  1.0000
  C   C2        1.0  0.79798  0.91876  0.85095  1.0000
  C   C3        1.0  0.83824  0.89614  0.81048  1.0000
  C   C4        1.0  0.89308  0.90428  0.82472  1.0000
  C   C5        1.0  0.90553  0.93505  0.87948  1.0000
  C   C6        1.0  0.86702  0.95666  0.91823  1.0000
  C   C7        1.0  0.89270  0.98468  0.96802  1.0000
  N   N1        1.0  0.94838  0.98087  0.96092  1.0000
  C   C8        1.0  0.95528  0.94956  0.90506  1.0000
  N   N2        1.0  0.00172  0.93424  0.87742  1.0000
  C   C9        1.0  0.04817  0.94967  0.90481  1.0000
  N   N3        1.0  0.05509  0.98099  0.96067  1.0000
  C   C10       1.0  0.11078  0.98485  0.96764  1.0000
  C   C11       1.0  0.13644  0.95688  0.91774  1.0000
  C   C12       1.0  0.09792  0.93523  0.87909  1.0000
  N   N4        1.0  0.05511  0.04111  0.06747  1.0000
  C   C13       1.0  0.11080  0.03714  0.06069  1.0000
  N   N5        1.0  0.13818  0.01090  0.01432  1.0000
  C   C14       1.0  0.13648  0.06525  0.11033  1.0000
  C   C15       1.0  0.09796  0.08709  0.14865  1.0000
  C   C16       1.0  0.04821  0.07264  0.12294  1.0000
  C   C17       1.0  0.11038  0.90444  0.82435  1.0000
  C   C18       1.0  0.16521  0.89636  0.81001  1.0000
  C   C19       1.0  0.20547  0.91906  0.85032  1.0000
  C   C20       1.0  0.19111  0.94990  0.90528  1.0000
  C   C21       1.0  0.11040  0.11797  0.20322  1.0000
  C   C22       1.0  0.16522  0.12598  0.21771  1.0000
  C   C23       1.0  0.20549  0.10317  0.17759  1.0000
  C   C24       1.0  0.19114  0.07222  0.12284  1.0000
  N   N6        1.0  0.94841  0.04114  0.06746  1.0000
  C   C25       1.0  0.95534  0.07268  0.12292  1.0000
  N   N7        1.0  0.00178  0.08822  0.15011  1.0000
  C   C26       1.0  0.90561  0.08715  0.14862  1.0000
  C   C27       1.0  0.86707  0.06529  0.11037  1.0000
  C   C28       1.0  0.89273  0.03714  0.06077  1.0000
  C   C29       1.0  0.81242  0.07231  0.12284  1.0000
  C   C30       1.0  0.79810  0.10337  0.17745  1.0000
  C   C31       1.0  0.83840  0.12617  0.21754  1.0000
  C   C32       1.0  0.89321  0.11807  0.20314  1.0000
  N   N8        1.0  0.86533  0.01080  0.01459  1.0000
  H   H1        1.0  0.78563  0.96513  0.93363  1.0000
  O   O1        1.0  0.75204  0.91172  0.83856  1.0000
  O   O2        1.0  0.82577  0.87027  0.76449  1.0000
  H   H2        1.0  0.92069  0.88927  0.79784  1.0000
  H   H3        1.0  0.08277  0.88938  0.79756  1.0000
  O   O3        1.0  0.17767  0.87047  0.76406  1.0000
  O   O4        1.0  0.25141  0.91210  0.83779  1.0000
  H   H4        1.0  0.21783  0.96546  0.93295  1.0000
  H   H5        1.0  0.08279  0.13312  0.22983  1.0000
  O   O5        1.0  0.17767  0.15188  0.26365  1.0000
  O   O6        1.0  0.25142  0.11014  0.19013  1.0000
  H   H6        1.0  0.21787  0.05658  0.09533  1.0000
  H   H7        1.0  0.78567  0.05667  0.09536  1.0000
  O   O7        1.0  0.75217  0.11045  0.18985  1.0000
  O   O8        1.0  0.82597  0.15214  0.26337  1.0000
  H   H8        1.0  0.92085  0.13321  0.22971  1.0000
  Ni  Ni1       1.0  0.00175  0.01098  0.01421  1.0000
  C   C33       1.0  0.81234  0.45015  0.11842  1.0000
  C   C34       1.0  0.79798  0.41916  0.17311  1.0000
  C   C35       1.0  0.83825  0.39634  0.21323  1.0000
  C   C36       1.0  0.89308  0.40438  0.19881  1.0000
  C   C37       1.0  0.90553  0.43527  0.14425  1.0000
  C   C38       1.0  0.86701  0.45712  0.10594  1.0000
  C   C39       1.0  0.89269  0.48521  0.05627  1.0000
  N   N9        1.0  0.94837  0.48122  0.06302  1.0000
  C   C40       1.0  0.95528  0.44971  0.11854  1.0000
  N   N10       1.0  0.00172  0.43413  0.14570  1.0000
  C   C41       1.0  0.04817  0.44959  0.11836  1.0000
  N   N11       1.0  0.05507  0.48110  0.06283  1.0000
  C   C42       1.0  0.11076  0.48505  0.05601  1.0000
  C   C43       1.0  0.13643  0.45690  0.10558  1.0000
  C   C44       1.0  0.09792  0.43509  0.14397  1.0000
  N   N12       1.0  0.05508  0.54134  0.95624  1.0000
  C   C45       1.0  0.11077  0.53753  0.96330  1.0000
  N   N13       1.0  0.13816  0.51138  0.00981  1.0000
  C   C46       1.0  0.13644  0.56553  0.91346  1.0000
  C   C47       1.0  0.09792  0.58714  0.87473  1.0000
  C   C48       1.0  0.04818  0.57263  0.90034  1.0000
  C   C49       1.0  0.11038  0.40422  0.19855  1.0000
  C   C50       1.0  0.16521  0.39614  0.21289  1.0000
  C   C51       1.0  0.20547  0.41889  0.17265  1.0000
  C   C52       1.0  0.19110  0.44989  0.11797  1.0000
  C   C53       1.0  0.11036  0.61792  0.81998  1.0000
  C   C54       1.0  0.16517  0.62611  0.80579  1.0000
  C   C55       1.0  0.20545  0.60349  0.84624  1.0000
  C   C56       1.0  0.19111  0.57260  0.90112  1.0000
  N   N14       1.0  0.94839  0.54131  0.95618  1.0000
  C   C57       1.0  0.95530  0.57259  0.90026  1.0000
  N   N15       1.0  0.00174  0.58794  0.87271  1.0000
  C   C58       1.0  0.90557  0.58708  0.87459  1.0000
  C   C59       1.0  0.86704  0.56550  0.91334  1.0000
  C   C60       1.0  0.89270  0.53752  0.96325  1.0000
  C   C61       1.0  0.81238  0.57252  0.90088  1.0000
  C   C62       1.0  0.79805  0.60332  0.84582  1.0000
  C   C63       1.0  0.83835  0.62594  0.80541  1.0000
  C   C64       1.0  0.89317  0.61783  0.81977  1.0000
  N   N16       1.0  0.86531  0.51147  0.00994  1.0000
  H   H9        1.0  0.78561  0.46579  0.09090  1.0000
  O   O9        1.0  0.75204  0.41216  0.18559  1.0000
  O   O10       1.0  0.82578  0.37039  0.25908  1.0000
  H   H10       1.0  0.92070  0.38923  0.22541  1.0000
  H   H11       1.0  0.08277  0.38910  0.22525  1.0000
  O   O11       1.0  0.17768  0.37023  0.25880  1.0000
  O   O12       1.0  0.25141  0.41183  0.18500  1.0000
  H   H12       1.0  0.21782  0.46550  0.09040  1.0000
  H   H13       1.0  0.08274  0.63293  0.79312  1.0000
  O   O13       1.0  0.17762  0.65202  0.75988  1.0000
  O   O14       1.0  0.25138  0.61057  0.83389  1.0000
  H   H14       1.0  0.21784  0.55709  0.92884  1.0000
  H   H15       1.0  0.78564  0.55702  0.92861  1.0000
  O   O15       1.0  0.75213  0.61030  0.83327  1.0000
  O   O16       1.0  0.82591  0.65179  0.75936  1.0000
  H   H16       1.0  0.92080  0.63283  0.79293  1.0000
  Ni  Ni2       1.0  0.00172  0.51129  0.00965  1.0000
  C   C65       1.0  0.69112  0.45158  0.40033  1.0000
  C   C66       1.0  0.70548  0.42059  0.34562  1.0000
  C   C67       1.0  0.66520  0.39777  0.30552  1.0000
  C   C68       1.0  0.61037  0.40582  0.31996  1.0000
  C   C69       1.0  0.59793  0.43671  0.37452  1.0000
  C   C70       1.0  0.63645  0.45856  0.41282  1.0000
  C   C71       1.0  0.61078  0.48665  0.46250  1.0000
  N   N17       1.0  0.55510  0.48265  0.45576  1.0000
  C   C72       1.0  0.54818  0.45115  0.40025  1.0000
  N   N18       1.0  0.50174  0.43557  0.37310  1.0000
  C   C73       1.0  0.45529  0.45103  0.40046  1.0000
  N   N19       1.0  0.44839  0.48254  0.45598  1.0000
  C   C74       1.0  0.39271  0.48648  0.46283  1.0000
  C   C75       1.0  0.36703  0.45834  0.41326  1.0000
  C   C76       1.0  0.40554  0.43653  0.37486  1.0000
  N   N20       1.0  0.44840  0.54278  0.56257  1.0000
  C   C77       1.0  0.39271  0.53897  0.55554  1.0000
  N   N21       1.0  0.36531  0.51281  0.50903  1.0000
  C   C78       1.0  0.36705  0.56697  0.60538  1.0000
  C   C79       1.0  0.40557  0.58858  0.64410  1.0000
  C   C80       1.0  0.45531  0.57407  0.61848  1.0000
  C   C81       1.0  0.39307  0.40565  0.32028  1.0000
  C   C82       1.0  0.33824  0.39758  0.30596  1.0000
  C   C83       1.0  0.29798  0.42033  0.34622  1.0000
  C   C84       1.0  0.31236  0.45132  0.40089  1.0000
  C   C85       1.0  0.39315  0.61936  0.69885  1.0000
  C   C86       1.0  0.33833  0.62754  0.71306  1.0000
  C   C87       1.0  0.29805  0.60492  0.67263  1.0000
  C   C88       1.0  0.31239  0.57404  0.61774  1.0000
  N   N22       1.0  0.55510  0.54275  0.56261  1.0000
  C   C89       1.0  0.54819  0.57403  0.61852  1.0000
  N   N23       1.0  0.50176  0.58938  0.64609  1.0000
  C   C90       1.0  0.59792  0.58852  0.64418  1.0000
  C   C91       1.0  0.63645  0.56693  0.60542  1.0000
  C   C92       1.0  0.61078  0.53896  0.55551  1.0000
  C   C93       1.0  0.69111  0.57396  0.61786  1.0000
  C   C94       1.0  0.70545  0.60475  0.67292  1.0000
  C   C95       1.0  0.66516  0.62738  0.71334  1.0000
  C   C96       1.0  0.61034  0.61927  0.69899  1.0000
  N   N24       1.0  0.63817  0.51291  0.50881  1.0000
  H   H17       1.0  0.71785  0.46723  0.42783  1.0000
  O   O17       1.0  0.75141  0.41360  0.33313  1.0000
  O   O18       1.0  0.67766  0.37183  0.25966  1.0000
  H   H18       1.0  0.58275  0.39066  0.29337  1.0000
  H   H19       1.0  0.42067  0.39054  0.29358  1.0000
  O   O19       1.0  0.32576  0.37167  0.26006  1.0000
  O   O20       1.0  0.25204  0.41327  0.33389  1.0000
  H   H20       1.0  0.28564  0.46694  0.42847  1.0000
  H   H21       1.0  0.42077  0.63436  0.72570  1.0000
  O   O21       1.0  0.32589  0.65346  0.75898  1.0000
  O   O22       1.0  0.25212  0.61200  0.68499  1.0000
  H   H22       1.0  0.28565  0.55852  0.59003  1.0000
  H   H23       1.0  0.71785  0.55845  0.59012  1.0000
  O   O23       1.0  0.75137  0.61174  0.68546  1.0000
  O   O24       1.0  0.67760  0.65322  0.75939  1.0000
  H   H24       1.0  0.58271  0.63426  0.72584  1.0000
  Ni  Ni3       1.0  0.50175  0.51273  0.50915  1.0000
  C   C97       1.0  0.31235  0.95160  0.62292  1.0000
  C   C98       1.0  0.29798  0.92061  0.67762  1.0000
  C   C99       1.0  0.33824  0.89779  0.71774  1.0000
  C   C100      1.0  0.39308  0.90583  0.70333  1.0000
  C   C101      1.0  0.40553  0.93672  0.64878  1.0000
  C   C102      1.0  0.36702  0.95858  0.61046  1.0000
  C   C103      1.0  0.39270  0.98666  0.56079  1.0000
  N   N25       1.0  0.44838  0.98267  0.56756  1.0000
  C   C104      1.0  0.45528  0.95116  0.62307  1.0000
  N   N26       1.0  0.50172  0.93558  0.65025  1.0000
  C   C105      1.0  0.54817  0.95104  0.62291  1.0000
  N   N27       1.0  0.55509  0.98255  0.56740  1.0000
  C   C106      1.0  0.61078  0.98649  0.56058  1.0000
  C   C107      1.0  0.63644  0.95835  0.61016  1.0000
  C   C108      1.0  0.59792  0.93654  0.64854  1.0000
  N   N28       1.0  0.55511  0.04279  0.46081  1.0000
  C   C109      1.0  0.61080  0.03898  0.46787  1.0000
  N   N29       1.0  0.63818  0.01283  0.51439  1.0000
  C   C110      1.0  0.63647  0.06698  0.41804  1.0000
  C   C111      1.0  0.59796  0.08859  0.37930  1.0000
  C   C112      1.0  0.54821  0.07408  0.40490  1.0000
  C   C113      1.0  0.61038  0.90567  0.70313  1.0000
  C   C114      1.0  0.66521  0.89759  0.71747  1.0000
  C   C115      1.0  0.70547  0.92034  0.67724  1.0000
  C   C116      1.0  0.69111  0.95134  0.62256  1.0000
  C   C117      1.0  0.61040  0.11937  0.32456  1.0000
  C   C118      1.0  0.66522  0.12756  0.31038  1.0000
  C   C119      1.0  0.70549  0.10494  0.35083  1.0000
  C   C120      1.0  0.69114  0.07405  0.40571  1.0000
  N   N30       1.0  0.44841  0.04277  0.46072  1.0000
  C   C121      1.0  0.45534  0.07405  0.40480  1.0000
  N   N31       1.0  0.50178  0.08940  0.37726  1.0000
  C   C122      1.0  0.40561  0.08854  0.37913  1.0000
  C   C123      1.0  0.36707  0.06695  0.41786  1.0000
  C   C124      1.0  0.39273  0.03898  0.46778  1.0000
  C   C125      1.0  0.31241  0.07397  0.40539  1.0000
  C   C126      1.0  0.29809  0.10477  0.35033  1.0000
  C   C127      1.0  0.33839  0.12740  0.30993  1.0000
  C   C128      1.0  0.39321  0.11928  0.32430  1.0000
  N   N32       1.0  0.36533  0.01293  0.51446  1.0000
  H   H25       1.0  0.28563  0.96725  0.59541  1.0000
  O   O25       1.0  0.25204  0.91361  0.69008  1.0000
  O   O26       1.0  0.32577  0.87185  0.76359  1.0000
  H   H26       1.0  0.42069  0.89068  0.72994  1.0000
  H   H27       1.0  0.58277  0.89055  0.72981  1.0000
  O   O27       1.0  0.67767  0.87168  0.76339  1.0000
  O   O28       1.0  0.75141  0.91328  0.68960  1.0000
  H   H28       1.0  0.71783  0.96695  0.59499  1.0000
  H   H29       1.0  0.58278  0.13438  0.29769  1.0000
  O   O29       1.0  0.67767  0.15347  0.26447  1.0000
  O   O30       1.0  0.75142  0.11202  0.33850  1.0000
  H   H30       1.0  0.71787  0.05854  0.43344  1.0000
  H   H31       1.0  0.28567  0.05847  0.43311  1.0000
  O   O31       1.0  0.25217  0.11176  0.33776  1.0000
  O   O32       1.0  0.32596  0.15324  0.26387  1.0000
  H   H32       1.0  0.42085  0.13428  0.29747  1.0000
  Ni  Ni4       1.0  0.50174  0.01274  0.51421  1.0000
  Fe  Fe1       1.0  0.25181  0.15289  0.26252  1.0000
  Fe  Fe2       1.0  0.75173  0.37085  0.26065  1.0000
  Fe  Fe3       1.0  0.25171  0.87086  0.76259  1.0000
  Fe  Fe4       1.0  0.75175  0.65289  0.76063  1.0000
  Fe  Fe5       1.0  0.75172  0.87086  0.76270  1.0000
  Fe  Fe6       1.0  0.25176  0.65288  0.76073  1.0000
  Fe  Fe7       1.0  0.75181  0.15288  0.26278  1.0000
  Fe  Fe8       1.0  0.25171  0.37087  0.26072  1.0000
  C   C129      1.0  0.25176  0.26170  0.18914  1.0000
  C   C130      1.0  0.25174  0.29720  0.22510  1.0000
  C   C131      1.0  0.25174  0.29738  0.29756  1.0000
  C   C132      1.0  0.25177  0.26206  0.33408  1.0000
  C   C133      1.0  0.25179  0.22657  0.29813  1.0000
  C   C134      1.0  0.25179  0.22638  0.22566  1.0000
  H   H33       1.0  0.25176  0.26156  0.13479  1.0000
  O   O33       1.0  0.25172  0.32898  0.19223  1.0000
  O   O34       1.0  0.25172  0.32933  0.32992  1.0000
  H   H34       1.0  0.25177  0.26220  0.38843  1.0000
  O   O35       1.0  0.25181  0.19478  0.33099  1.0000
  O   O36       1.0  0.25181  0.19443  0.19330  1.0000
  C   C135      1.0  0.75176  0.26164  0.18926  1.0000
  C   C136      1.0  0.75179  0.22634  0.22584  1.0000
  C   C137      1.0  0.75179  0.22658  0.29831  1.0000
  C   C138      1.0  0.75178  0.26210  0.33419  1.0000
  C   C139      1.0  0.75176  0.29739  0.29760  1.0000
  C   C140      1.0  0.75175  0.29716  0.22513  1.0000
  H   H35       1.0  0.75176  0.26146  0.13490  1.0000
  O   O37       1.0  0.75180  0.19437  0.19355  1.0000
  O   O38       1.0  0.75182  0.19481  0.33124  1.0000
  H   H36       1.0  0.75178  0.26227  0.38854  1.0000
  O   O39       1.0  0.75174  0.32936  0.32989  1.0000
  O   O40       1.0  0.75173  0.32892  0.19220  1.0000
  C   C141      1.0  0.25174  0.76168  0.83412  1.0000
  C   C142      1.0  0.25175  0.72637  0.79760  1.0000
  C   C143      1.0  0.25174  0.72656  0.72513  1.0000
  C   C144      1.0  0.25173  0.76206  0.68919  1.0000
  C   C145      1.0  0.25172  0.79737  0.72571  1.0000
  C   C146      1.0  0.25173  0.79718  0.79818  1.0000
  H   H37       1.0  0.25175  0.76154  0.88847  1.0000
  O   O41       1.0  0.25176  0.69442  0.82994  1.0000
  O   O42       1.0  0.25175  0.69478  0.69225  1.0000
  H   H38       1.0  0.25172  0.76220  0.63484  1.0000
  O   O43       1.0  0.25171  0.82932  0.69337  1.0000
  O   O44       1.0  0.25172  0.82896  0.83106  1.0000
  C   C147      1.0  0.75173  0.76210  0.68920  1.0000
  C   C148      1.0  0.75172  0.79740  0.72577  1.0000
  C   C149      1.0  0.75172  0.79717  0.79824  1.0000
  C   C150      1.0  0.75174  0.76166  0.83413  1.0000
  C   C151      1.0  0.75174  0.72636  0.79756  1.0000
  C   C152      1.0  0.75174  0.72658  0.72509  1.0000
  H   H39       1.0  0.75173  0.76227  0.63485  1.0000
  O   O45       1.0  0.75171  0.82936  0.69347  1.0000
  O   O46       1.0  0.75172  0.82894  0.83116  1.0000
  H   H40       1.0  0.75174  0.76149  0.88848  1.0000
  O   O47       1.0  0.75175  0.69439  0.82986  1.0000
  O   O48       1.0  0.75175  0.69482  0.69217  1.0000
