data_image0
_chemical_formula_structural       C7NCNCNC3NCNC11NCNC7NHO2H2O2H2O2H2O2HNiC7NCNCNC3NCNC11NCNC7NHO2H2O2H2O2H2O2HNiC7NCNCNC3NCNC11NCNC7NHO2H2O2H2O2H2O2HNiC7NCNCNC3NCNC11NCNC7NHO2H2O2H2O2H2O2HNiFe8C6O2HO2HCuC6O2HO2HCuC6O2HO2HCuC6O2HO2HCuC6O2HO2HCuC6O2HO2HCuC6O2HO2HCuC6O2HO2HCuC6O2HO2HCuC6O2HO2HCuC6O2HO2HCuC6O2HO2HCuC6O2HO2HCuC6O2HO2HCuC6O2HO2HCuC6O2HO2HCuC6HO2HO2C6HO2HO2C6HO2HO2C6HO2HO2
_chemical_formula_sum              "C248 N32 H72 O112 Ni4 Fe8 Cu16"
_cell_length_a       50.9754
_cell_length_b       50.9748
_cell_length_c       36.043
_cell_angle_alpha    90.0003
_cell_angle_beta     90.0001
_cell_angle_gamma    89.9998

_space_group_name_H-M_alt    "P 1"
_space_group_IT_number       1

loop_
  _space_group_symop_operation_xyz
  'x, y, z'

loop_
  _atom_site_type_symbol
  _atom_site_label
  _atom_site_symmetry_multiplicity
  _atom_site_fract_x
  _atom_site_fract_y
  _atom_site_fract_z
  _atom_site_occupancy
  C   C1        1.0  0.90206  0.97131  0.95052  1.0000
  C   C2        1.0  0.89438  0.95058  0.92107  1.0000
  C   C3        1.0  0.91597  0.93539  0.89941  1.0000
  C   C4        1.0  0.94535  0.94086  0.90708  1.0000
  C   C5        1.0  0.95200  0.96153  0.93644  1.0000
  C   C6        1.0  0.93135  0.97605  0.95718  1.0000
  C   C7        1.0  0.94510  0.99487  0.98388  1.0000
  N   N1        1.0  0.97494  0.99231  0.98011  1.0000
  C   C8        1.0  0.97866  0.97128  0.95018  1.0000
  N   N2        1.0  0.00355  0.96099  0.93540  1.0000
  C   C9        1.0  0.02844  0.97135  0.95011  1.0000
  N   N3        1.0  0.03212  0.99239  0.98005  1.0000
  C   C10       1.0  0.06196  0.99498  0.98382  1.0000
  C   C11       1.0  0.07573  0.97620  0.95709  1.0000
  C   C12       1.0  0.05511  0.96165  0.93636  1.0000
  N   N4        1.0  0.03210  0.03279  0.03729  1.0000
  C   C13       1.0  0.06195  0.03012  0.03369  1.0000
  N   N5        1.0  0.07663  0.01249  0.00886  1.0000
  C   C14       1.0  0.07569  0.04900  0.06031  1.0000
  C   C15       1.0  0.05503  0.06368  0.08082  1.0000
  C   C16       1.0  0.02838  0.05397  0.06701  1.0000
  C   C17       1.0  0.06180  0.94096  0.90703  1.0000
  C   C18       1.0  0.09119  0.93553  0.89938  1.0000
  C   C19       1.0  0.11275  0.95079  0.92101  1.0000
  C   C20       1.0  0.10503  0.97151  0.95046  1.0000
  C   C21       1.0  0.06168  0.08443  0.11008  1.0000
  C   C22       1.0  0.09105  0.08981  0.11788  1.0000
  C   C23       1.0  0.11265  0.07448  0.09640  1.0000
  C   C24       1.0  0.10498  0.05369  0.06705  1.0000
  N   N6        1.0  0.97492  0.03280  0.03721  1.0000
  C   C25       1.0  0.97861  0.05399  0.06693  1.0000
  N   N7        1.0  0.00349  0.06444  0.08154  1.0000
  C   C26       1.0  0.95195  0.06372  0.08067  1.0000
  C   C27       1.0  0.93132  0.04903  0.06015  1.0000
  C   C28       1.0  0.94508  0.03012  0.03358  1.0000
  C   C29       1.0  0.90202  0.05375  0.06679  1.0000
  C   C30       1.0  0.89433  0.07462  0.09605  1.0000
  C   C31       1.0  0.91591  0.08993  0.11757  1.0000
  C   C32       1.0  0.94529  0.08449  0.10988  1.0000
  N   N8        1.0  0.93041  0.01242  0.00882  1.0000
  H   H1        1.0  0.88773  0.98174  0.96538  1.0000
  O   O1        1.0  0.86976  0.94585  0.91440  1.0000
  O   O2        1.0  0.90930  0.91801  0.87475  1.0000
  H   H2        1.0  0.96016  0.93077  0.89270  1.0000
  H   H3        1.0  0.04701  0.93085  0.89265  1.0000
  O   O3        1.0  0.09788  0.91814  0.87477  1.0000
  O   O4        1.0  0.13737  0.94611  0.91433  1.0000
  H   H4        1.0  0.11935  0.98196  0.96531  1.0000
  H   H5        1.0  0.04687  0.09460  0.12432  1.0000
  O   O5        1.0  0.09771  0.10721  0.14250  1.0000
  O   O6        1.0  0.13726  0.07916  0.10315  1.0000
  H   H6        1.0  0.11931  0.04318  0.05232  1.0000
  H   H7        1.0  0.88770  0.04324  0.05205  1.0000
  O   O7        1.0  0.86971  0.07937  0.10266  1.0000
  O   O8        1.0  0.90924  0.10738  0.14212  1.0000
  H   H8        1.0  0.96009  0.09467  0.12414  1.0000
  Ni  Ni1       1.0  0.00352  0.01254  0.00871  1.0000
  C   C33       1.0  0.90199  0.47169  0.07791  1.0000
  C   C34       1.0  0.89428  0.45087  0.10722  1.0000
  C   C35       1.0  0.91585  0.43554  0.12874  1.0000
  C   C36       1.0  0.94524  0.44094  0.12104  1.0000
  C   C37       1.0  0.95192  0.46170  0.09181  1.0000
  C   C38       1.0  0.93129  0.47638  0.07125  1.0000
  C   C39       1.0  0.94506  0.49525  0.04465  1.0000
  N   N9        1.0  0.97490  0.49257  0.04830  1.0000
  C   C40       1.0  0.97859  0.47140  0.07805  1.0000
  N   N10       1.0  0.00347  0.46093  0.09264  1.0000
  C   C41       1.0  0.02837  0.47132  0.07800  1.0000
  N   N11       1.0  0.03209  0.49249  0.04825  1.0000
  C   C42       1.0  0.06193  0.49514  0.04462  1.0000
  C   C43       1.0  0.07567  0.47623  0.07121  1.0000
  C   C44       1.0  0.05502  0.46158  0.09176  1.0000
  N   N12       1.0  0.03212  0.53296  0.99113  1.0000
  C   C45       1.0  0.06196  0.53040  0.99494  1.0000
  N   N13       1.0  0.07663  0.51283  0.01988  1.0000
  C   C46       1.0  0.07573  0.54922  0.96824  1.0000
  C   C47       1.0  0.05510  0.56373  0.94747  1.0000
  C   C48       1.0  0.02844  0.55398  0.96116  1.0000
  C   C49       1.0  0.06169  0.44084  0.12102  1.0000
  C   C50       1.0  0.09107  0.43541  0.12873  1.0000
  C   C51       1.0  0.11265  0.45069  0.10719  1.0000
  C   C52       1.0  0.10497  0.47152  0.07788  1.0000
  C   C53       1.0  0.06178  0.58441  0.91813  1.0000
  C   C54       1.0  0.09116  0.58991  0.91056  1.0000
  C   C55       1.0  0.11273  0.57472  0.93225  1.0000
  C   C56       1.0  0.10503  0.55396  0.96166  1.0000
  N   N14       1.0  0.97494  0.53294  0.99104  1.0000
  C   C57       1.0  0.97866  0.55396  0.96107  1.0000
  N   N15       1.0  0.00356  0.56427  0.94633  1.0000
  C   C58       1.0  0.95202  0.56369  0.94729  1.0000
  C   C59       1.0  0.93136  0.54919  0.96804  1.0000
  C   C60       1.0  0.94510  0.53040  0.99480  1.0000
  C   C61       1.0  0.90207  0.55391  0.96133  1.0000
  C   C62       1.0  0.89441  0.57460  0.93181  1.0000
  C   C63       1.0  0.91601  0.58980  0.91018  1.0000
  C   C64       1.0  0.94539  0.58435  0.91791  1.0000
  N   N16       1.0  0.93041  0.51289  0.01981  1.0000
  H   H9        1.0  0.88768  0.48220  0.06315  1.0000
  O   O9        1.0  0.86966  0.44617  0.11388  1.0000
  O   O10       1.0  0.90916  0.41811  0.15330  1.0000
  H   H10       1.0  0.96003  0.43077  0.13531  1.0000
  H   H11       1.0  0.04689  0.43068  0.13531  1.0000
  O   O11       1.0  0.09774  0.41800  0.15334  1.0000
  O   O12       1.0  0.13727  0.44595  0.11383  1.0000
  H   H12       1.0  0.11929  0.48201  0.06311  1.0000
  H   H13       1.0  0.04698  0.59449  0.90372  1.0000
  O   O13       1.0  0.09784  0.60732  0.88596  1.0000
  O   O14       1.0  0.13735  0.57947  0.92566  1.0000
  H   H14       1.0  0.11935  0.54354  0.97653  1.0000
  H   H15       1.0  0.88773  0.54349  0.97618  1.0000
  O   O15       1.0  0.86980  0.57929  0.92506  1.0000
  O   O16       1.0  0.90936  0.60716  0.88549  1.0000
  H   H16       1.0  0.96020  0.59442  0.90353  1.0000
  Ni  Ni2       1.0  0.00351  0.51277  0.01973  1.0000
  C   C65       1.0  0.60498  0.46618  0.46101  1.0000
  C   C66       1.0  0.61266  0.44536  0.43169  1.0000
  C   C67       1.0  0.59107  0.43003  0.41022  1.0000
  C   C68       1.0  0.56169  0.43543  0.41799  1.0000
  C   C69       1.0  0.55504  0.45618  0.44723  1.0000
  C   C70       1.0  0.57569  0.47086  0.46774  1.0000
  C   C71       1.0  0.56195  0.48974  0.49438  1.0000
  N   N17       1.0  0.53211  0.48705  0.49080  1.0000
  C   C72       1.0  0.52839  0.46588  0.46105  1.0000
  N   N18       1.0  0.50349  0.45542  0.44652  1.0000
  C   C73       1.0  0.47861  0.46581  0.46121  1.0000
  N   N19       1.0  0.47492  0.48697  0.49097  1.0000
  C   C74       1.0  0.44508  0.48962  0.49467  1.0000
  C   C75       1.0  0.43131  0.47072  0.46812  1.0000
  C   C76       1.0  0.45194  0.45606  0.44752  1.0000
  N   N20       1.0  0.47496  0.52745  0.54810  1.0000
  C   C77       1.0  0.44511  0.52489  0.54435  1.0000
  N   N21       1.0  0.43042  0.50732  0.51945  1.0000
  C   C78       1.0  0.43137  0.54370  0.57108  1.0000
  C   C79       1.0  0.45203  0.55822  0.59181  1.0000
  C   C80       1.0  0.47868  0.54847  0.57805  1.0000
  C   C81       1.0  0.44524  0.43532  0.41828  1.0000
  C   C82       1.0  0.41585  0.42990  0.41063  1.0000
  C   C83       1.0  0.39429  0.44518  0.43223  1.0000
  C   C84       1.0  0.40201  0.46600  0.46152  1.0000
  C   C85       1.0  0.44538  0.57890  0.62116  1.0000
  C   C86       1.0  0.41601  0.58440  0.62881  1.0000
  C   C87       1.0  0.39442  0.56920  0.60716  1.0000
  C   C88       1.0  0.40208  0.54845  0.57774  1.0000
  N   N22       1.0  0.53213  0.52743  0.54806  1.0000
  C   C89       1.0  0.52845  0.54844  0.57803  1.0000
  N   N23       1.0  0.50357  0.55876  0.59283  1.0000
  C   C90       1.0  0.55511  0.55818  0.59175  1.0000
  C   C91       1.0  0.57574  0.54367  0.57096  1.0000
  C   C92       1.0  0.56197  0.52488  0.54422  1.0000
  C   C93       1.0  0.60504  0.54839  0.57760  1.0000
  C   C94       1.0  0.61273  0.56908  0.60709  1.0000
  C   C95       1.0  0.59115  0.58429  0.62878  1.0000
  C   C96       1.0  0.56177  0.57883  0.62112  1.0000
  N   N24       1.0  0.57664  0.50738  0.51918  1.0000
  H   H17       1.0  0.61932  0.47669  0.47574  1.0000
  O   O17       1.0  0.63727  0.44066  0.42497  1.0000
  O   O18       1.0  0.59773  0.41260  0.38563  1.0000
  H   H18       1.0  0.54688  0.42525  0.40375  1.0000
  H   H19       1.0  0.46002  0.42517  0.40395  1.0000
  O   O19       1.0  0.40915  0.41249  0.38604  1.0000
  O   O20       1.0  0.36967  0.44044  0.42564  1.0000
  H   H20       1.0  0.38770  0.47649  0.47632  1.0000
  H   H21       1.0  0.46019  0.58898  0.63554  1.0000
  O   O21       1.0  0.40936  0.60181  0.65342  1.0000
  O   O22       1.0  0.36981  0.57396  0.61381  1.0000
  H   H22       1.0  0.38774  0.53803  0.56290  1.0000
  H   H23       1.0  0.61936  0.53798  0.56272  1.0000
  O   O23       1.0  0.63735  0.57378  0.61379  1.0000
  O   O24       1.0  0.59783  0.60165  0.65345  1.0000
  H   H24       1.0  0.54697  0.58891  0.63553  1.0000
  Ni  Ni3       1.0  0.50353  0.50726  0.51943  1.0000
  C   C97       1.0  0.40206  0.96621  0.56711  1.0000
  C   C98       1.0  0.39438  0.94539  0.59643  1.0000
  C   C99       1.0  0.41597  0.93006  0.61790  1.0000
  C   C100      1.0  0.44535  0.93546  0.61014  1.0000
  C   C101      1.0  0.45200  0.95621  0.58090  1.0000
  C   C102      1.0  0.43135  0.97089  0.56039  1.0000
  C   C103      1.0  0.44510  0.98976  0.53376  1.0000
  N   N25       1.0  0.47494  0.98708  0.53734  1.0000
  C   C104      1.0  0.47866  0.96591  0.56709  1.0000
  N   N26       1.0  0.50355  0.95545  0.58162  1.0000
  C   C105      1.0  0.52844  0.96583  0.56694  1.0000
  N   N27       1.0  0.53212  0.98700  0.53718  1.0000
  C   C106      1.0  0.56196  0.98965  0.53349  1.0000
  C   C107      1.0  0.57573  0.97074  0.56005  1.0000
  C   C108      1.0  0.55511  0.95609  0.58064  1.0000
  N   N28       1.0  0.53210  0.02748  0.48006  1.0000
  C   C109      1.0  0.56195  0.02491  0.48381  1.0000
  N   N29       1.0  0.57663  0.00734  0.50872  1.0000
  C   C110      1.0  0.57569  0.04373  0.45709  1.0000
  C   C111      1.0  0.55503  0.05825  0.43635  1.0000
  C   C112      1.0  0.52838  0.04850  0.45010  1.0000
  C   C113      1.0  0.56180  0.93535  0.60989  1.0000
  C   C114      1.0  0.59118  0.92992  0.61754  1.0000
  C   C115      1.0  0.61275  0.94521  0.59595  1.0000
  C   C116      1.0  0.60503  0.96603  0.56666  1.0000
  C   C117      1.0  0.56168  0.07893  0.40700  1.0000
  C   C118      1.0  0.59105  0.08442  0.39937  1.0000
  C   C119      1.0  0.61265  0.06923  0.42102  1.0000
  C   C120      1.0  0.60498  0.04848  0.45044  1.0000
  N   N30       1.0  0.47492  0.02746  0.48008  1.0000
  C   C121      1.0  0.47861  0.04847  0.45011  1.0000
  N   N31       1.0  0.50349  0.05879  0.43532  1.0000
  C   C122      1.0  0.45195  0.05821  0.43639  1.0000
  C   C123      1.0  0.43132  0.04370  0.45717  1.0000
  C   C124      1.0  0.44508  0.02491  0.48391  1.0000
  C   C125      1.0  0.40202  0.04842  0.45053  1.0000
  C   C126      1.0  0.39433  0.06911  0.42103  1.0000
  C   C127      1.0  0.41591  0.08432  0.39935  1.0000
  C   C128      1.0  0.44529  0.07886  0.40701  1.0000
  N   N32       1.0  0.43041  0.00741  0.50895  1.0000
  H   H25       1.0  0.38773  0.97672  0.55238  1.0000
  O   O25       1.0  0.36976  0.94069  0.60314  1.0000
  O   O26       1.0  0.40930  0.91263  0.64249  1.0000
  H   H26       1.0  0.46016  0.92528  0.62439  1.0000
  H   H27       1.0  0.54701  0.92519  0.62421  1.0000
  O   O27       1.0  0.59788  0.91251  0.64214  1.0000
  O   O28       1.0  0.63737  0.94046  0.60254  1.0000
  H   H28       1.0  0.61934  0.97652  0.55186  1.0000
  H   H29       1.0  0.54687  0.08901  0.39262  1.0000
  O   O29       1.0  0.59771  0.10183  0.37475  1.0000
  O   O30       1.0  0.63726  0.07398  0.41438  1.0000
  H   H30       1.0  0.61931  0.03805  0.46528  1.0000
  H   H31       1.0  0.38770  0.03801  0.46540  1.0000
  O   O31       1.0  0.36971  0.07381  0.41432  1.0000
  O   O32       1.0  0.40924  0.10168  0.37467  1.0000
  H   H32       1.0  0.46009  0.08894  0.39261  1.0000
  Ni  Ni4       1.0  0.50352  0.00728  0.50871  1.0000
  Fe  Fe1       1.0  0.25343  0.18671  0.26262  1.0000
  Fe  Fe2       1.0  0.75338  0.33314  0.26539  1.0000
  Fe  Fe3       1.0  0.25364  0.83315  0.76267  1.0000
  Fe  Fe4       1.0  0.75366  0.68671  0.76540  1.0000
  Fe  Fe5       1.0  0.75365  0.83315  0.76217  1.0000
  Fe  Fe6       1.0  0.25367  0.68670  0.76598  1.0000
  Fe  Fe7       1.0  0.75342  0.18671  0.26222  1.0000
  Fe  Fe8       1.0  0.25337  0.33316  0.26598  1.0000
  C   C129      1.0  0.22612  0.15306  0.21297  1.0000
  C   C130      1.0  0.20477  0.16790  0.23467  1.0000
  C   C131      1.0  0.17561  0.16266  0.22651  1.0000
  C   C132      1.0  0.16771  0.14256  0.19664  1.0000
  C   C133      1.0  0.18910  0.12766  0.17485  1.0000
  C   C134      1.0  0.21827  0.13296  0.18309  1.0000
  O   O33       1.0  0.25474  0.15820  0.22097  1.0000
  O   O34       1.0  0.21247  0.18761  0.26397  1.0000
  H   H33       1.0  0.15984  0.17367  0.24261  1.0000
  O   O35       1.0  0.13903  0.13748  0.18872  1.0000
  O   O36       1.0  0.18151  0.10788  0.14546  1.0000
  H   H34       1.0  0.23407  0.12196  0.16702  1.0000
  Cu  Cu1       1.0  0.13851  0.10782  0.14478  1.0000
  C   C135      1.0  0.78071  0.36827  0.21788  1.0000
  C   C136      1.0  0.80205  0.35292  0.23889  1.0000
  C   C137      1.0  0.83122  0.35871  0.23156  1.0000
  C   C138      1.0  0.83914  0.37986  0.20320  1.0000
  C   C139      1.0  0.81776  0.39527  0.18210  1.0000
  C   C140      1.0  0.78859  0.38943  0.18951  1.0000
  O   O37       1.0  0.75209  0.36259  0.22507  1.0000
  O   O38       1.0  0.79433  0.33217  0.26671  1.0000
  H   H35       1.0  0.84698  0.34732  0.24714  1.0000
  O   O39       1.0  0.86783  0.38548  0.19609  1.0000
  O   O40       1.0  0.82537  0.41609  0.15419  1.0000
  H   H36       1.0  0.77280  0.40079  0.17395  1.0000
  Cu  Cu2       1.0  0.86837  0.41659  0.15420  1.0000
  C   C141      1.0  0.22631  0.86827  0.81019  1.0000
  C   C142      1.0  0.20497  0.85292  0.78919  1.0000
  C   C143      1.0  0.17580  0.85871  0.79654  1.0000
  C   C144      1.0  0.16789  0.87986  0.82491  1.0000
  C   C145      1.0  0.18927  0.89527  0.84600  1.0000
  C   C146      1.0  0.21844  0.88943  0.83857  1.0000
  O   O41       1.0  0.25493  0.86259  0.80298  1.0000
  O   O42       1.0  0.21269  0.83218  0.76136  1.0000
  H   H37       1.0  0.16004  0.84732  0.78095  1.0000
  O   O43       1.0  0.13920  0.88547  0.83203  1.0000
  O   O44       1.0  0.18166  0.91608  0.87391  1.0000
  H   H38       1.0  0.23423  0.90079  0.85412  1.0000
  Cu  Cu3       1.0  0.13866  0.91658  0.87393  1.0000
  C   C147      1.0  0.80226  0.66786  0.79343  1.0000
  C   C148      1.0  0.78090  0.65303  0.81511  1.0000
  C   C149      1.0  0.78865  0.63293  0.84502  1.0000
  C   C150      1.0  0.81780  0.62760  0.85332  1.0000
  C   C151      1.0  0.83926  0.64246  0.83160  1.0000
  C   C152      1.0  0.83142  0.66256  0.80170  1.0000
  O   O45       1.0  0.79465  0.68759  0.76409  1.0000
  O   O46       1.0  0.75231  0.65823  0.80701  1.0000
  H   H39       1.0  0.77280  0.62197  0.86102  1.0000
  O   O47       1.0  0.82532  0.60783  0.88273  1.0000
  O   O48       1.0  0.86793  0.63734  0.83960  1.0000
  H   H40       1.0  0.84724  0.67354  0.78565  1.0000
  Cu  Cu4       1.0  0.86828  0.60766  0.88359  1.0000
  C   C153      1.0  0.80225  0.85295  0.78885  1.0000
  C   C154      1.0  0.78087  0.86825  0.80985  1.0000
  C   C155      1.0  0.78862  0.88936  0.83834  1.0000
  C   C156      1.0  0.81777  0.89524  0.84589  1.0000
  C   C157      1.0  0.83923  0.87991  0.82484  1.0000
  C   C158      1.0  0.83140  0.85879  0.79635  1.0000
  O   O49       1.0  0.79464  0.83223  0.76090  1.0000
  O   O50       1.0  0.75229  0.86252  0.80249  1.0000
  H   H41       1.0  0.77277  0.90066  0.85385  1.0000
  O   O51       1.0  0.82529  0.91600  0.87390  1.0000
  O   O52       1.0  0.86791  0.88556  0.83209  1.0000
  H   H42       1.0  0.84722  0.84747  0.78081  1.0000
  Cu  Cu5       1.0  0.86824  0.91662  0.87414  1.0000
  C   C159      1.0  0.22632  0.65307  0.81561  1.0000
  C   C160      1.0  0.20499  0.66795  0.79392  1.0000
  C   C161      1.0  0.17582  0.66276  0.80210  1.0000
  C   C162      1.0  0.16789  0.64268  0.83197  1.0000
  C   C163      1.0  0.18926  0.62774  0.85375  1.0000
  C   C164      1.0  0.21844  0.63298  0.84549  1.0000
  O   O53       1.0  0.25495  0.65815  0.80759  1.0000
  O   O54       1.0  0.21272  0.68765  0.76462  1.0000
  H   H43       1.0  0.16006  0.67380  0.78601  1.0000
  O   O55       1.0  0.13920  0.63765  0.83990  1.0000
  O   O56       1.0  0.18164  0.60797  0.88314  1.0000
  H   H44       1.0  0.23422  0.62196  0.86155  1.0000
  Cu  Cu6       1.0  0.13865  0.60799  0.88384  1.0000
  C   C165      1.0  0.80204  0.16790  0.23421  1.0000
  C   C166      1.0  0.78070  0.15303  0.21255  1.0000
  C   C167      1.0  0.78848  0.13293  0.18265  1.0000
  C   C168      1.0  0.81764  0.12765  0.17434  1.0000
  C   C169      1.0  0.83907  0.14255  0.19605  1.0000
  C   C170      1.0  0.83120  0.16265  0.22594  1.0000
  O   O57       1.0  0.79440  0.18763  0.26354  1.0000
  O   O58       1.0  0.75210  0.15818  0.22066  1.0000
  H   H45       1.0  0.77265  0.12194  0.16666  1.0000
  O   O59       1.0  0.82519  0.10788  0.14495  1.0000
  O   O60       1.0  0.86776  0.13748  0.18805  1.0000
  H   H46       1.0  0.84701  0.17366  0.24197  1.0000
  Cu  Cu7       1.0  0.86815  0.10778  0.14407  1.0000
  C   C171      1.0  0.22608  0.36823  0.21836  1.0000
  C   C172      1.0  0.20472  0.35292  0.23937  1.0000
  C   C173      1.0  0.17556  0.35870  0.23194  1.0000
  C   C174      1.0  0.16768  0.37981  0.20349  1.0000
  C   C175      1.0  0.18909  0.39518  0.18239  1.0000
  C   C176      1.0  0.21825  0.38934  0.18989  1.0000
  O   O61       1.0  0.25470  0.36256  0.22564  1.0000
  O   O62       1.0  0.21241  0.33222  0.26727  1.0000
  H   H47       1.0  0.15978  0.34734  0.24753  1.0000
  O   O63       1.0  0.13900  0.38542  0.19629  1.0000
  O   O64       1.0  0.18151  0.41595  0.15439  1.0000
  H   H48       1.0  0.23406  0.40068  0.17434  1.0000
  Cu  Cu8       1.0  0.13851  0.41646  0.15429  1.0000
  C   C177      1.0  0.72631  0.65158  0.71789  1.0000
  C   C178      1.0  0.70498  0.66693  0.73890  1.0000
  C   C179      1.0  0.67581  0.66115  0.73157  1.0000
  C   C180      1.0  0.66789  0.63999  0.70321  1.0000
  C   C181      1.0  0.68926  0.62457  0.68211  1.0000
  C   C182      1.0  0.71843  0.63042  0.68952  1.0000
  O   O65       1.0  0.75494  0.65725  0.72508  1.0000
  O   O66       1.0  0.71271  0.68768  0.76671  1.0000
  H   H49       1.0  0.66006  0.67254  0.74716  1.0000
  O   O67       1.0  0.63920  0.63438  0.69611  1.0000
  O   O68       1.0  0.68164  0.60376  0.65421  1.0000
  H   H50       1.0  0.73422  0.61905  0.67396  1.0000
  Cu  Cu9       1.0  0.63864  0.60326  0.65423  1.0000
  C   C183      1.0  0.30223  0.85200  0.73464  1.0000
  C   C184      1.0  0.28086  0.86683  0.71297  1.0000
  C   C185      1.0  0.28862  0.88694  0.68306  1.0000
  C   C186      1.0  0.31776  0.89227  0.67476  1.0000
  C   C187      1.0  0.33922  0.87741  0.69647  1.0000
  C   C188      1.0  0.33139  0.85730  0.72638  1.0000
  O   O69       1.0  0.29463  0.83227  0.76398  1.0000
  O   O70       1.0  0.25228  0.86163  0.72107  1.0000
  H   H51       1.0  0.27276  0.89789  0.66706  1.0000
  O   O71       1.0  0.32528  0.91205  0.64535  1.0000
  O   O72       1.0  0.36790  0.88254  0.68848  1.0000
  H   H52       1.0  0.34721  0.84633  0.74242  1.0000
  Cu  Cu10      1.0  0.36824  0.91223  0.64449  1.0000
  C   C189      1.0  0.70479  0.35199  0.29343  1.0000
  C   C190      1.0  0.72616  0.36682  0.31510  1.0000
  C   C191      1.0  0.71841  0.38692  0.34501  1.0000
  C   C192      1.0  0.68927  0.39225  0.35333  1.0000
  C   C193      1.0  0.66780  0.37739  0.33162  1.0000
  C   C194      1.0  0.67563  0.35729  0.30171  1.0000
  O   O73       1.0  0.71239  0.33226  0.26409  1.0000
  O   O74       1.0  0.75474  0.36162  0.30698  1.0000
  H   H53       1.0  0.73427  0.39787  0.36101  1.0000
  O   O75       1.0  0.68175  0.41202  0.38274  1.0000
  O   O76       1.0  0.63913  0.38252  0.33962  1.0000
  H   H54       1.0  0.65981  0.34631  0.28567  1.0000
  Cu  Cu11      1.0  0.63880  0.41220  0.38362  1.0000
  C   C195      1.0  0.30206  0.16689  0.28920  1.0000
  C   C196      1.0  0.28071  0.15155  0.31019  1.0000
  C   C197      1.0  0.28849  0.13039  0.33859  1.0000
  C   C198      1.0  0.31764  0.12451  0.34606  1.0000
  C   C199      1.0  0.33908  0.13988  0.32503  1.0000
  C   C200      1.0  0.33122  0.16104  0.29664  1.0000
  O   O77       1.0  0.29442  0.18766  0.26135  1.0000
  O   O78       1.0  0.25212  0.15728  0.30291  1.0000
  H   H55       1.0  0.27265  0.11906  0.35409  1.0000
  O   O79       1.0  0.32519  0.10370  0.37398  1.0000
  O   O80       1.0  0.36777  0.13422  0.33221  1.0000
  H   H56       1.0  0.34703  0.17240  0.28110  1.0000
  Cu  Cu12      1.0  0.36815  0.10309  0.37415  1.0000
  C   C201      1.0  0.30199  0.35196  0.29400  1.0000
  C   C202      1.0  0.28064  0.36682  0.31566  1.0000
  C   C203      1.0  0.28843  0.38692  0.34557  1.0000
  C   C204      1.0  0.31758  0.39220  0.35388  1.0000
  C   C205      1.0  0.33902  0.37730  0.33217  1.0000
  C   C206      1.0  0.33115  0.35721  0.30227  1.0000
  O   O81       1.0  0.29435  0.33224  0.26466  1.0000
  O   O82       1.0  0.25205  0.36167  0.30755  1.0000
  H   H57       1.0  0.27259  0.39790  0.36157  1.0000
  O   O83       1.0  0.32513  0.41196  0.38328  1.0000
  O   O84       1.0  0.36770  0.38238  0.34017  1.0000
  H   H58       1.0  0.34696  0.34620  0.28623  1.0000
  Cu  Cu13      1.0  0.36809  0.41207  0.38416  1.0000
  C   C207      1.0  0.72611  0.15163  0.30985  1.0000
  C   C208      1.0  0.70476  0.16694  0.28882  1.0000
  C   C209      1.0  0.67559  0.16117  0.29623  1.0000
  C   C210      1.0  0.66770  0.14007  0.32468  1.0000
  C   C211      1.0  0.68910  0.12469  0.34580  1.0000
  C   C212      1.0  0.71826  0.13053  0.33832  1.0000
  O   O85       1.0  0.75473  0.15730  0.30259  1.0000
  O   O86       1.0  0.71246  0.18764  0.26092  1.0000
  H   H59       1.0  0.65983  0.17253  0.28063  1.0000
  O   O87       1.0  0.63902  0.13446  0.33186  1.0000
  O   O88       1.0  0.68151  0.10393  0.37380  1.0000
  H   H60       1.0  0.73407  0.11919  0.35389  1.0000
  Cu  Cu14      1.0  0.63851  0.10343  0.37386  1.0000
  C   C213      1.0  0.30227  0.66689  0.73930  1.0000
  C   C214      1.0  0.28090  0.65159  0.71830  1.0000
  C   C215      1.0  0.28866  0.63047  0.68983  1.0000
  C   C216      1.0  0.31780  0.62459  0.68228  1.0000
  C   C217      1.0  0.33926  0.63992  0.70333  1.0000
  C   C218      1.0  0.33143  0.66104  0.73181  1.0000
  O   O89       1.0  0.29467  0.68761  0.76724  1.0000
  O   O90       1.0  0.25232  0.65732  0.72565  1.0000
  H   H61       1.0  0.27280  0.61917  0.67431  1.0000
  O   O91       1.0  0.32532  0.60382  0.65429  1.0000
  O   O92       1.0  0.36794  0.63427  0.69609  1.0000
  H   H62       1.0  0.34725  0.67237  0.74735  1.0000
  Cu  Cu15      1.0  0.36828  0.60320  0.65405  1.0000
  C   C219      1.0  0.72632  0.86679  0.71255  1.0000
  C   C220      1.0  0.70498  0.85190  0.73422  1.0000
  C   C221      1.0  0.67581  0.85710  0.72604  1.0000
  C   C222      1.0  0.66789  0.87719  0.69617  1.0000
  C   C223      1.0  0.68927  0.89213  0.67441  1.0000
  C   C224      1.0  0.71845  0.88688  0.68267  1.0000
  O   O93       1.0  0.75494  0.86169  0.72058  1.0000
  O   O94       1.0  0.71270  0.83220  0.76352  1.0000
  H   H63       1.0  0.66005  0.84606  0.74212  1.0000
  O   O95       1.0  0.63921  0.88222  0.68823  1.0000
  O   O96       1.0  0.68166  0.91190  0.64502  1.0000
  H   H64       1.0  0.73423  0.89790  0.66662  1.0000
  Cu  Cu16      1.0  0.63866  0.91189  0.64430  1.0000
  C   C225      1.0  0.25339  0.26039  0.22548  1.0000
  C   C226      1.0  0.25338  0.28394  0.24545  1.0000
  C   C227      1.0  0.25338  0.28349  0.28429  1.0000
  C   C228      1.0  0.25339  0.25948  0.30315  1.0000
  C   C229      1.0  0.25340  0.23592  0.28318  1.0000
  C   C230      1.0  0.25340  0.23638  0.24434  1.0000
  H   H65       1.0  0.25339  0.26073  0.19635  1.0000
  O   O97       1.0  0.25336  0.30555  0.22848  1.0000
  O   O98       1.0  0.25336  0.30469  0.30227  1.0000
  H   H66       1.0  0.25339  0.25914  0.33228  1.0000
  O   O99       1.0  0.25342  0.21431  0.30015  1.0000
  O   O100      1.0  0.25342  0.21518  0.22636  1.0000
  C   C231      1.0  0.75339  0.26034  0.22495  1.0000
  C   C232      1.0  0.75340  0.23635  0.24386  1.0000
  C   C233      1.0  0.75340  0.23593  0.28269  1.0000
  C   C234      1.0  0.75339  0.25951  0.30262  1.0000
  C   C235      1.0  0.75338  0.28350  0.28372  1.0000
  C   C236      1.0  0.75338  0.28392  0.24488  1.0000
  H   H67       1.0  0.75339  0.26066  0.19582  1.0000
  O   O101      1.0  0.75340  0.21514  0.22592  1.0000
  O   O102      1.0  0.75341  0.21434  0.29971  1.0000
  H   H68       1.0  0.75339  0.25919  0.33175  1.0000
  O   O103      1.0  0.75337  0.30471  0.30165  1.0000
  O   O104      1.0  0.75337  0.30551  0.22786  1.0000
  C   C237      1.0  0.25367  0.76037  0.80318  1.0000
  C   C238      1.0  0.25367  0.73637  0.78431  1.0000
  C   C239      1.0  0.25367  0.73592  0.74547  1.0000
  C   C240      1.0  0.25366  0.75948  0.72550  1.0000
  C   C241      1.0  0.25366  0.78349  0.74438  1.0000
  C   C242      1.0  0.25366  0.78393  0.78322  1.0000
  H   H69       1.0  0.25367  0.76071  0.83231  1.0000
  O   O105      1.0  0.25368  0.71516  0.80227  1.0000
  O   O106      1.0  0.25368  0.71432  0.72848  1.0000
  H   H70       1.0  0.25366  0.75915  0.69638  1.0000
  O   O107      1.0  0.25365  0.80469  0.72641  1.0000
  O   O108      1.0  0.25365  0.80554  0.80020  1.0000
  C   C243      1.0  0.75367  0.75950  0.72492  1.0000
  C   C244      1.0  0.75366  0.78349  0.74381  1.0000
  C   C245      1.0  0.75366  0.78392  0.78265  1.0000
  C   C246      1.0  0.75367  0.76035  0.80260  1.0000
  C   C247      1.0  0.75367  0.73636  0.78370  1.0000
  C   C248      1.0  0.75367  0.73593  0.74487  1.0000
  H   H71       1.0  0.75367  0.75918  0.69579  1.0000
  O   O109      1.0  0.75366  0.80470  0.72587  1.0000
  O   O110      1.0  0.75366  0.80552  0.79966  1.0000
  H   H72       1.0  0.75367  0.76068  0.83172  1.0000
  O   O111      1.0  0.75367  0.71515  0.80165  1.0000
  O   O112      1.0  0.75367  0.71433  0.72786  1.0000
