data_image0
_chemical_formula_structural       C7NCNCNC3NCNC11NCNC7NHO2H2O2H2O2H2O2HNiC7NCNCNC3NCNC11NCNC7NHO2H2O2H2O2H2O2HNiC7NCNCNC3NCNC11NCNC7NHO2H2O2H2O2H2O2HNiC7NCNCNC3NCNC11NCNC7NHO2H2O2H2O2H2O2HNiFe8C6O2HO2HCuC6O2HO2HCuC6O2HO2HCuC6O2HO2HCuC6O2HO2HCuC6O2HO2HCuC6O2HO2HCuC6O2HO2HCuC6O2HO2HCuC6O2HO2HCuC6O2HO2HCuC6O2HO2HCuC6O2HO2HCuC6O2HO2HCuC6O2HO2HCuC6O2HO2HCuC6HO2HO2C6HO2HO2C6HO2HO2C6HO2HO2
_chemical_formula_sum              "C248 N32 H72 O112 Ni4 Fe8 Cu16"
_cell_length_a       50.9743
_cell_length_b       50.9628
_cell_length_c       36.0412
_cell_angle_alpha    89.9998
_cell_angle_beta     90.0003
_cell_angle_gamma    90.0003

_space_group_name_H-M_alt    "P 1"
_space_group_IT_number       1

loop_
  _space_group_symop_operation_xyz
  'x, y, z'

loop_
  _atom_site_type_symbol
  _atom_site_label
  _atom_site_symmetry_multiplicity
  _atom_site_fract_x
  _atom_site_fract_y
  _atom_site_fract_z
  _atom_site_occupancy
  C   C1        1.0  0.90160  0.04939  0.05893  1.0000
  C   C2        1.0  0.89392  0.07012  0.08838  1.0000
  C   C3        1.0  0.91551  0.08533  0.11005  1.0000
  C   C4        1.0  0.94489  0.07986  0.10238  1.0000
  C   C5        1.0  0.95155  0.05918  0.07302  1.0000
  C   C6        1.0  0.93090  0.04466  0.05228  1.0000
  C   C7        1.0  0.94464  0.02583  0.02557  1.0000
  N   N1        1.0  0.97449  0.02839  0.02934  1.0000
  C   C8        1.0  0.97820  0.04943  0.05928  1.0000
  N   N2        1.0  0.00310  0.05972  0.07406  1.0000
  C   C9        1.0  0.02798  0.04935  0.05935  1.0000
  N   N3        1.0  0.03167  0.02831  0.02941  1.0000
  C   C10       1.0  0.06151  0.02572  0.02563  1.0000
  C   C11       1.0  0.07528  0.04451  0.05236  1.0000
  C   C12       1.0  0.05465  0.05906  0.07310  1.0000
  N   N4        1.0  0.03165  0.98791  0.97216  1.0000
  C   C13       1.0  0.06149  0.99058  0.97576  1.0000
  N   N5        1.0  0.07618  0.00821  0.00010  1.0000
  C   C14       1.0  0.07523  0.97169  0.94914  1.0000
  C   C15       1.0  0.05458  0.95701  0.92863  1.0000
  C   C16       1.0  0.02793  0.96672  0.94244  1.0000
  C   C17       1.0  0.06134  0.07975  0.10243  1.0000
  C   C18       1.0  0.09073  0.08518  0.11008  1.0000
  C   C19       1.0  0.11230  0.06992  0.08845  1.0000
  C   C20       1.0  0.10458  0.04920  0.05900  1.0000
  C   C21       1.0  0.06123  0.93626  0.89937  1.0000
  C   C22       1.0  0.09060  0.93088  0.89157  1.0000
  C   C23       1.0  0.11220  0.94620  0.91304  1.0000
  C   C24       1.0  0.10453  0.96701  0.94240  1.0000
  N   N6        1.0  0.97447  0.98789  0.97224  1.0000
  C   C25       1.0  0.97816  0.96670  0.94251  1.0000
  N   N7        1.0  0.00304  0.95625  0.92791  1.0000
  C   C26       1.0  0.95150  0.95697  0.92877  1.0000
  C   C27       1.0  0.93086  0.97166  0.94930  1.0000
  C   C28       1.0  0.94463  0.99058  0.97587  1.0000
  C   C29       1.0  0.90157  0.96694  0.94265  1.0000
  C   C30       1.0  0.89387  0.94607  0.91339  1.0000
  C   C31       1.0  0.91546  0.93075  0.89188  1.0000
  C   C32       1.0  0.94484  0.93619  0.89956  1.0000
  N   N8        1.0  0.92996  0.00827  0.00010  1.0000
  H   H1        1.0  0.88727  0.03896  0.04407  1.0000
  O   O1        1.0  0.86931  0.07486  0.09505  1.0000
  O   O2        1.0  0.90884  0.10271  0.13471  1.0000
  H   H2        1.0  0.95970  0.08994  0.11676  1.0000
  H   H3        1.0  0.04656  0.08987  0.11681  1.0000
  O   O3        1.0  0.09743  0.10258  0.13470  1.0000
  O   O4        1.0  0.13692  0.07460  0.09513  1.0000
  H   H4        1.0  0.11889  0.03875  0.04415  1.0000
  H   H5        1.0  0.04642  0.92608  0.88513  1.0000
  O   O5        1.0  0.09726  0.91347  0.86694  1.0000
  O   O6        1.0  0.13681  0.94152  0.90629  1.0000
  H   H6        1.0  0.11886  0.97751  0.95713  1.0000
  H   H7        1.0  0.88724  0.97745  0.95739  1.0000
  O   O7        1.0  0.86926  0.94131  0.90678  1.0000
  O   O8        1.0  0.90878  0.91330  0.86732  1.0000
  H   H8        1.0  0.95964  0.92602  0.88530  1.0000
  Ni  Ni1       1.0  0.00306  0.00816  0.00010  1.0000
  C   C33       1.0  0.90153  0.46705  0.07414  1.0000
  C   C34       1.0  0.89382  0.44622  0.10345  1.0000
  C   C35       1.0  0.91539  0.43089  0.12497  1.0000
  C   C36       1.0  0.94478  0.43629  0.11727  1.0000
  C   C37       1.0  0.95146  0.45705  0.08804  1.0000
  C   C38       1.0  0.93083  0.47174  0.06749  1.0000
  C   C39       1.0  0.94461  0.49061  0.04088  1.0000
  N   N9        1.0  0.97445  0.48793  0.04453  1.0000
  C   C40       1.0  0.97813  0.46675  0.07429  1.0000
  N   N10       1.0  0.00301  0.45628  0.08888  1.0000
  C   C41       1.0  0.02791  0.46668  0.07425  1.0000
  N   N11       1.0  0.03163  0.48785  0.04450  1.0000
  C   C42       1.0  0.06148  0.49050  0.04087  1.0000
  C   C43       1.0  0.07522  0.47159  0.06746  1.0000
  C   C44       1.0  0.05457  0.45693  0.08801  1.0000
  N   N12       1.0  0.03167  0.52833  0.98737  1.0000
  C   C45       1.0  0.06151  0.52577  0.99118  1.0000
  N   N13       1.0  0.07618  0.50819  0.01613  1.0000
  C   C46       1.0  0.07528  0.54459  0.96449  1.0000
  C   C47       1.0  0.05465  0.55911  0.94371  1.0000
  C   C48       1.0  0.02799  0.54936  0.95740  1.0000
  C   C49       1.0  0.06123  0.43619  0.11727  1.0000
  C   C50       1.0  0.09061  0.43076  0.12499  1.0000
  C   C51       1.0  0.11220  0.44605  0.10344  1.0000
  C   C52       1.0  0.10451  0.46687  0.07413  1.0000
  C   C53       1.0  0.06133  0.57979  0.91437  1.0000
  C   C54       1.0  0.09071  0.58529  0.90680  1.0000
  C   C55       1.0  0.11228  0.57009  0.92850  1.0000
  C   C56       1.0  0.10458  0.54934  0.95790  1.0000
  N   N14       1.0  0.97449  0.52831  0.98727  1.0000
  C   C57       1.0  0.97822  0.54933  0.95730  1.0000
  N   N15       1.0  0.00311  0.55965  0.94256  1.0000
  C   C58       1.0  0.95157  0.55907  0.94352  1.0000
  C   C59       1.0  0.93091  0.54456  0.96426  1.0000
  C   C60       1.0  0.94465  0.52577  0.99103  1.0000
  C   C61       1.0  0.90162  0.54928  0.95755  1.0000
  C   C62       1.0  0.89396  0.56998  0.92803  1.0000
  C   C63       1.0  0.91557  0.58518  0.90639  1.0000
  C   C64       1.0  0.94494  0.57973  0.91413  1.0000
  N   N16       1.0  0.92995  0.50826  0.01603  1.0000
  H   H9        1.0  0.88722  0.47756  0.05938  1.0000
  O   O9        1.0  0.86920  0.44152  0.11010  1.0000
  O   O10       1.0  0.90869  0.41346  0.14954  1.0000
  H   H10       1.0  0.95957  0.42611  0.13155  1.0000
  H   H11       1.0  0.04643  0.42603  0.13156  1.0000
  O   O11       1.0  0.09728  0.41335  0.14960  1.0000
  O   O12       1.0  0.13681  0.44130  0.11009  1.0000
  H   H12       1.0  0.11884  0.47737  0.05937  1.0000
  H   H13       1.0  0.04654  0.58987  0.89996  1.0000
  O   O13       1.0  0.09740  0.60271  0.88220  1.0000
  O   O14       1.0  0.13690  0.57485  0.92191  1.0000
  H   H14       1.0  0.11890  0.53891  0.97278  1.0000
  H   H15       1.0  0.88728  0.53886  0.97239  1.0000
  O   O15       1.0  0.86935  0.57467  0.92127  1.0000
  O   O16       1.0  0.90892  0.60255  0.88170  1.0000
  H   H16       1.0  0.95976  0.58981  0.89976  1.0000
  Ni  Ni2       1.0  0.00306  0.50814  0.01596  1.0000
  C   C65       1.0  0.40161  0.54193  0.57391  1.0000
  C   C66       1.0  0.39393  0.56266  0.60336  1.0000
  C   C67       1.0  0.41553  0.57786  0.62502  1.0000
  C   C68       1.0  0.44491  0.57239  0.61734  1.0000
  C   C69       1.0  0.45156  0.55172  0.58798  1.0000
  C   C70       1.0  0.43090  0.53720  0.56724  1.0000
  C   C71       1.0  0.44464  0.51837  0.54053  1.0000
  N   N17       1.0  0.47449  0.52092  0.54429  1.0000
  C   C72       1.0  0.47821  0.54197  0.57422  1.0000
  N   N18       1.0  0.50311  0.55226  0.58900  1.0000
  C   C73       1.0  0.52799  0.54189  0.57427  1.0000
  N   N19       1.0  0.53167  0.52085  0.54433  1.0000
  C   C74       1.0  0.56151  0.51825  0.54054  1.0000
  C   C75       1.0  0.57529  0.53704  0.56727  1.0000
  C   C76       1.0  0.55466  0.55160  0.58801  1.0000
  N   N20       1.0  0.53164  0.48045  0.48708  1.0000
  C   C77       1.0  0.56148  0.48312  0.49067  1.0000
  N   N21       1.0  0.57618  0.50074  0.51550  1.0000
  C   C78       1.0  0.57522  0.46422  0.46404  1.0000
  C   C79       1.0  0.55456  0.44955  0.44354  1.0000
  C   C80       1.0  0.52791  0.45926  0.45736  1.0000
  C   C81       1.0  0.56136  0.57229  0.61734  1.0000
  C   C82       1.0  0.59075  0.57772  0.62498  1.0000
  C   C83       1.0  0.61231  0.56246  0.60334  1.0000
  C   C84       1.0  0.60459  0.54174  0.57389  1.0000
  C   C85       1.0  0.56120  0.42880  0.41428  1.0000
  C   C86       1.0  0.59057  0.42341  0.40646  1.0000
  C   C87       1.0  0.61217  0.43874  0.42793  1.0000
  C   C88       1.0  0.60451  0.45954  0.45729  1.0000
  N   N22       1.0  0.47446  0.48043  0.48719  1.0000
  C   C89       1.0  0.47814  0.45923  0.45746  1.0000
  N   N23       1.0  0.50302  0.44879  0.44284  1.0000
  C   C90       1.0  0.45148  0.44951  0.44373  1.0000
  C   C91       1.0  0.43085  0.46420  0.46426  1.0000
  C   C92       1.0  0.44462  0.48311  0.49082  1.0000
  C   C93       1.0  0.40155  0.45948  0.45763  1.0000
  C   C94       1.0  0.39385  0.43861  0.42837  1.0000
  C   C95       1.0  0.41543  0.42329  0.40685  1.0000
  C   C96       1.0  0.44481  0.42873  0.41452  1.0000
  N   N24       1.0  0.42995  0.50081  0.51560  1.0000
  H   H17       1.0  0.38728  0.53150  0.55906  1.0000
  O   O17       1.0  0.36932  0.56739  0.61004  1.0000
  O   O18       1.0  0.40887  0.59525  0.64968  1.0000
  H   H18       1.0  0.45972  0.58248  0.63172  1.0000
  H   H19       1.0  0.54658  0.58240  0.63172  1.0000
  O   O19       1.0  0.59745  0.59512  0.64959  1.0000
  O   O20       1.0  0.63693  0.56714  0.61001  1.0000
  H   H20       1.0  0.61890  0.53128  0.55904  1.0000
  H   H21       1.0  0.54639  0.41861  0.40004  1.0000
  O   O21       1.0  0.59723  0.40601  0.38183  1.0000
  O   O22       1.0  0.63678  0.43406  0.42117  1.0000
  H   H22       1.0  0.61885  0.47005  0.47201  1.0000
  H   H23       1.0  0.38723  0.46999  0.47238  1.0000
  O   O23       1.0  0.36923  0.43385  0.42177  1.0000
  O   O24       1.0  0.40875  0.40583  0.38230  1.0000
  H   H24       1.0  0.45961  0.41855  0.40025  1.0000
  Ni  Ni3       1.0  0.50306  0.50069  0.51568  1.0000
  C   C97       1.0  0.60455  0.95923  0.55893  1.0000
  C   C98       1.0  0.61223  0.93850  0.58838  1.0000
  C   C99       1.0  0.59064  0.92330  0.61005  1.0000
  C   C100      1.0  0.56126  0.92877  0.60238  1.0000
  C   C101      1.0  0.55460  0.94945  0.57302  1.0000
  C   C102      1.0  0.57525  0.96396  0.55227  1.0000
  C   C103      1.0  0.56151  0.98279  0.52557  1.0000
  N   N25       1.0  0.53166  0.98024  0.52934  1.0000
  C   C104      1.0  0.52795  0.95920  0.55928  1.0000
  N   N26       1.0  0.50305  0.94890  0.57406  1.0000
  C   C105      1.0  0.47817  0.95927  0.55935  1.0000
  N   N27       1.0  0.47448  0.98032  0.52940  1.0000
  C   C106      1.0  0.44464  0.98291  0.52563  1.0000
  C   C107      1.0  0.43087  0.96412  0.55236  1.0000
  C   C108      1.0  0.45150  0.94956  0.57310  1.0000
  N   N28       1.0  0.47450  0.02072  0.47216  1.0000
  C   C109      1.0  0.44466  0.01805  0.47576  1.0000
  N   N29       1.0  0.42997  0.00010  0.50060  1.0000
  C   C110      1.0  0.43091  0.03694  0.44914  1.0000
  C   C111      1.0  0.45157  0.05162  0.42862  1.0000
  C   C112      1.0  0.47822  0.04191  0.44244  1.0000
  C   C113      1.0  0.44481  0.92888  0.60243  1.0000
  C   C114      1.0  0.41542  0.92345  0.61008  1.0000
  C   C115      1.0  0.39385  0.93870  0.58845  1.0000
  C   C116      1.0  0.40157  0.95943  0.55900  1.0000
  C   C117      1.0  0.44492  0.07237  0.39937  1.0000
  C   C118      1.0  0.41555  0.07775  0.39157  1.0000
  C   C119      1.0  0.39395  0.06242  0.41304  1.0000
  C   C120      1.0  0.40162  0.04162  0.44240  1.0000
  N   N30       1.0  0.53168  0.02074  0.47224  1.0000
  C   C121      1.0  0.52799  0.04193  0.44251  1.0000
  N   N31       1.0  0.50311  0.05238  0.42790  1.0000
  C   C122      1.0  0.55465  0.05166  0.42877  1.0000
  C   C123      1.0  0.57529  0.03697  0.44930  1.0000
  C   C124      1.0  0.56152  0.01805  0.47586  1.0000
  C   C125      1.0  0.60458  0.04169  0.44265  1.0000
  C   C126      1.0  0.61228  0.06256  0.41339  1.0000
  C   C127      1.0  0.59069  0.07787  0.39187  1.0000
  C   C128      1.0  0.56131  0.07243  0.39956  1.0000
  N   N32       1.0  0.57619  0.00010  0.50063  1.0000
  H   H25       1.0  0.61888  0.96966  0.54407  1.0000
  O   O25       1.0  0.63684  0.93377  0.59505  1.0000
  O   O26       1.0  0.59731  0.90592  0.63470  1.0000
  H   H26       1.0  0.54645  0.91868  0.61676  1.0000
  H   H27       1.0  0.45959  0.91876  0.61681  1.0000
  O   O27       1.0  0.40872  0.90605  0.63470  1.0000
  O   O28       1.0  0.36923  0.93403  0.59513  1.0000
  H   H28       1.0  0.38726  0.96988  0.54415  1.0000
  H   H29       1.0  0.45973  0.08255  0.38513  1.0000
  O   O29       1.0  0.40889  0.09516  0.36694  1.0000
  O   O30       1.0  0.36934  0.06711  0.40629  1.0000
  H   H30       1.0  0.38729  0.03111  0.45713  1.0000
  H   H31       1.0  0.61891  0.03117  0.45739  1.0000
  O   O31       1.0  0.63689  0.06731  0.40677  1.0000
  O   O32       1.0  0.59737  0.09533  0.36732  1.0000
  H   H32       1.0  0.54651  0.08261  0.38530  1.0000
  Ni  Ni4       1.0  0.50309  0.00010  0.50074  1.0000
  Fe  Fe1       1.0  0.25322  0.18111  0.25588  1.0000
  Fe  Fe2       1.0  0.75288  0.32752  0.26019  1.0000
  Fe  Fe3       1.0  0.25294  0.82752  0.75592  1.0000
  Fe  Fe4       1.0  0.75327  0.68111  0.76015  1.0000
  Fe  Fe5       1.0  0.75301  0.82751  0.75631  1.0000
  Fe  Fe6       1.0  0.25320  0.68112  0.76084  1.0000
  Fe  Fe7       1.0  0.75315  0.18112  0.25635  1.0000
  Fe  Fe8       1.0  0.25295  0.32751  0.26079  1.0000
  C   C129      1.0  0.22589  0.14771  0.20589  1.0000
  C   C130      1.0  0.20455  0.16249  0.22772  1.0000
  C   C131      1.0  0.17538  0.15736  0.21946  1.0000
  C   C132      1.0  0.16746  0.13745  0.18935  1.0000
  C   C133      1.0  0.18884  0.12261  0.16743  1.0000
  C   C134      1.0  0.21801  0.12779  0.17577  1.0000
  O   O33       1.0  0.25451  0.15274  0.21399  1.0000
  O   O34       1.0  0.21228  0.18202  0.25725  1.0000
  H   H33       1.0  0.15963  0.16832  0.23566  1.0000
  O   O35       1.0  0.13877  0.13247  0.18134  1.0000
  O   O36       1.0  0.18122  0.10301  0.13781  1.0000
  H   H34       1.0  0.23380  0.11685  0.15961  1.0000
  Cu  Cu1       1.0  0.13822  0.10305  0.13707  1.0000
  C   C135      1.0  0.78022  0.36290  0.21301  1.0000
  C   C136      1.0  0.80155  0.34748  0.23394  1.0000
  C   C137      1.0  0.83072  0.35337  0.22678  1.0000
  C   C138      1.0  0.83865  0.37470  0.19868  1.0000
  C   C139      1.0  0.81727  0.39019  0.17766  1.0000
  C   C140      1.0  0.78810  0.38424  0.18490  1.0000
  O   O37       1.0  0.75159  0.35712  0.22004  1.0000
  O   O38       1.0  0.79382  0.32656  0.26150  1.0000
  H   H35       1.0  0.84647  0.34193  0.24230  1.0000
  O   O39       1.0  0.86734  0.38042  0.19174  1.0000
  O   O40       1.0  0.82490  0.41118  0.15001  1.0000
  H   H36       1.0  0.77232  0.39566  0.16941  1.0000
  Cu  Cu2       1.0  0.86789  0.41177  0.15019  1.0000
  C   C141      1.0  0.22563  0.86290  0.80309  1.0000
  C   C142      1.0  0.20427  0.84748  0.78223  1.0000
  C   C143      1.0  0.17511  0.85338  0.78948  1.0000
  C   C144      1.0  0.16723  0.87471  0.81761  1.0000
  C   C145      1.0  0.18863  0.89019  0.83855  1.0000
  C   C146      1.0  0.21779  0.88424  0.83123  1.0000
  O   O41       1.0  0.25424  0.85712  0.79598  1.0000
  O   O42       1.0  0.21195  0.82656  0.75465  1.0000
  H   H37       1.0  0.15933  0.84194  0.77401  1.0000
  O   O43       1.0  0.13855  0.88043  0.82464  1.0000
  O   O44       1.0  0.18105  0.91118  0.86623  1.0000
  H   H38       1.0  0.23360  0.89566  0.84668  1.0000
  Cu  Cu3       1.0  0.13806  0.91178  0.86619  1.0000
  C   C147      1.0  0.80188  0.66244  0.78845  1.0000
  C   C148      1.0  0.78050  0.64768  0.81020  1.0000
  C   C149      1.0  0.78824  0.62775  0.84036  1.0000
  C   C150      1.0  0.81738  0.62254  0.84885  1.0000
  C   C151      1.0  0.83885  0.63733  0.82706  1.0000
  C   C152      1.0  0.83103  0.65726  0.79690  1.0000
  O   O45       1.0  0.79428  0.68199  0.75886  1.0000
  O   O46       1.0  0.75192  0.65277  0.80192  1.0000
  H   H39       1.0  0.77238  0.61685  0.85643  1.0000
  O   O47       1.0  0.82489  0.60294  0.87851  1.0000
  O   O48       1.0  0.86752  0.63232  0.83523  1.0000
  H   H40       1.0  0.84686  0.66818  0.78080  1.0000
  Cu  Cu4       1.0  0.86784  0.60287  0.87955  1.0000
  C   C153      1.0  0.80162  0.84750  0.78269  1.0000
  C   C154      1.0  0.78027  0.86289  0.80360  1.0000
  C   C155      1.0  0.78804  0.88420  0.83179  1.0000
  C   C156      1.0  0.81720  0.89017  0.83913  1.0000
  C   C157      1.0  0.83864  0.87474  0.81817  1.0000
  C   C158      1.0  0.83078  0.85344  0.78999  1.0000
  O   O49       1.0  0.79399  0.82659  0.75503  1.0000
  O   O50       1.0  0.75168  0.85706  0.79645  1.0000
  H   H41       1.0  0.77220  0.89557  0.84724  1.0000
  O   O51       1.0  0.82474  0.91112  0.86685  1.0000
  O   O52       1.0  0.86732  0.88049  0.82523  1.0000
  H   H42       1.0  0.84659  0.84204  0.77451  1.0000
  Cu  Cu5       1.0  0.86770  0.91182  0.86689  1.0000
  C   C159      1.0  0.22587  0.64775  0.81087  1.0000
  C   C160      1.0  0.20453  0.66253  0.78904  1.0000
  C   C161      1.0  0.17536  0.65743  0.79734  1.0000
  C   C162      1.0  0.16744  0.63754  0.82749  1.0000
  C   C163      1.0  0.18882  0.62270  0.84941  1.0000
  C   C164      1.0  0.21799  0.62786  0.84103  1.0000
  O   O53       1.0  0.25449  0.65275  0.80273  1.0000
  O   O54       1.0  0.21226  0.68203  0.75948  1.0000
  H   H43       1.0  0.15961  0.66839  0.78114  1.0000
  O   O55       1.0  0.13875  0.63260  0.83554  1.0000
  O   O56       1.0  0.18120  0.60313  0.87907  1.0000
  H   H44       1.0  0.23378  0.61692  0.85719  1.0000
  Cu  Cu6       1.0  0.13820  0.60321  0.87986  1.0000
  C   C165      1.0  0.80177  0.16249  0.22803  1.0000
  C   C166      1.0  0.78040  0.14771  0.20628  1.0000
  C   C167      1.0  0.78815  0.12780  0.17610  1.0000
  C   C168      1.0  0.81730  0.12262  0.16759  1.0000
  C   C169      1.0  0.83876  0.13743  0.18938  1.0000
  C   C170      1.0  0.83092  0.15733  0.21956  1.0000
  O   O57       1.0  0.79417  0.18202  0.25764  1.0000
  O   O58       1.0  0.75182  0.15276  0.21458  1.0000
  H   H45       1.0  0.77230  0.11688  0.16004  1.0000
  O   O59       1.0  0.82482  0.10304  0.13792  1.0000
  O   O60       1.0  0.86743  0.13245  0.18119  1.0000
  H   H46       1.0  0.84675  0.16827  0.23565  1.0000
  Cu  Cu7       1.0  0.86777  0.10302  0.13684  1.0000
  C   C171      1.0  0.22564  0.36287  0.21358  1.0000
  C   C172      1.0  0.20428  0.34745  0.23444  1.0000
  C   C173      1.0  0.17511  0.35332  0.22715  1.0000
  C   C174      1.0  0.16723  0.37462  0.19898  1.0000
  C   C175      1.0  0.18864  0.39011  0.17804  1.0000
  C   C176      1.0  0.21780  0.38418  0.18540  1.0000
  O   O61       1.0  0.25425  0.35711  0.22072  1.0000
  O   O62       1.0  0.21196  0.32655  0.26206  1.0000
  H   H47       1.0  0.15934  0.34188  0.24263  1.0000
  O   O63       1.0  0.13856  0.38032  0.19192  1.0000
  O   O64       1.0  0.18106  0.41107  0.15032  1.0000
  H   H48       1.0  0.23361  0.39559  0.16995  1.0000
  Cu  Cu8       1.0  0.13806  0.41164  0.15032  1.0000
  C   C177      1.0  0.72592  0.64572  0.71298  1.0000
  C   C178      1.0  0.70460  0.66114  0.73390  1.0000
  C   C179      1.0  0.67542  0.65525  0.72674  1.0000
  C   C180      1.0  0.66750  0.63392  0.69865  1.0000
  C   C181      1.0  0.68887  0.61843  0.67764  1.0000
  C   C182      1.0  0.71804  0.62438  0.68487  1.0000
  O   O65       1.0  0.75455  0.65150  0.72000  1.0000
  O   O66       1.0  0.71233  0.68207  0.76146  1.0000
  H   H49       1.0  0.65967  0.66669  0.74227  1.0000
  O   O67       1.0  0.63881  0.62820  0.69171  1.0000
  O   O68       1.0  0.68124  0.59744  0.64998  1.0000
  H   H50       1.0  0.73383  0.61296  0.66938  1.0000
  Cu  Cu9       1.0  0.63825  0.59685  0.65016  1.0000
  C   C183      1.0  0.30155  0.84619  0.72768  1.0000
  C   C184      1.0  0.28020  0.86095  0.70586  1.0000
  C   C185      1.0  0.28799  0.88088  0.67573  1.0000
  C   C186      1.0  0.31714  0.88610  0.66733  1.0000
  C   C187      1.0  0.33858  0.87130  0.68919  1.0000
  C   C188      1.0  0.33071  0.85138  0.71933  1.0000
  O   O69       1.0  0.29391  0.82664  0.75725  1.0000
  O   O70       1.0  0.25161  0.85586  0.71406  1.0000
  H   H51       1.0  0.27215  0.89178  0.65962  1.0000
  O   O71       1.0  0.32469  0.90569  0.63770  1.0000
  O   O72       1.0  0.36726  0.87632  0.68111  1.0000
  H   H52       1.0  0.34652  0.84045  0.73547  1.0000
  Cu  Cu10      1.0  0.36765  0.90577  0.63679  1.0000
  C   C189      1.0  0.70427  0.34618  0.28849  1.0000
  C   C190      1.0  0.72565  0.36095  0.31024  1.0000
  C   C191      1.0  0.71790  0.38088  0.34039  1.0000
  C   C192      1.0  0.68876  0.38610  0.34888  1.0000
  C   C193      1.0  0.66729  0.37130  0.32708  1.0000
  C   C194      1.0  0.67512  0.35137  0.29693  1.0000
  O   O73       1.0  0.71186  0.32663  0.25890  1.0000
  O   O74       1.0  0.75423  0.35586  0.30196  1.0000
  H   H53       1.0  0.73377  0.39179  0.35645  1.0000
  O   O75       1.0  0.68125  0.40570  0.37853  1.0000
  O   O76       1.0  0.63862  0.37631  0.33525  1.0000
  H   H54       1.0  0.65928  0.34044  0.28083  1.0000
  Cu  Cu11      1.0  0.63830  0.40577  0.37957  1.0000
  C   C195      1.0  0.30184  0.16109  0.28227  1.0000
  C   C196      1.0  0.28046  0.14569  0.30312  1.0000
  C   C197      1.0  0.28820  0.12435  0.33127  1.0000
  C   C198      1.0  0.31735  0.11835  0.33865  1.0000
  C   C199      1.0  0.33881  0.13379  0.31776  1.0000
  C   C200      1.0  0.33099  0.15513  0.28961  1.0000
  O   O77       1.0  0.29424  0.18204  0.25465  1.0000
  O   O78       1.0  0.25188  0.15153  0.29592  1.0000
  H   H55       1.0  0.27235  0.11297  0.34667  1.0000
  O   O79       1.0  0.32486  0.09737  0.36634  1.0000
  O   O80       1.0  0.36749  0.12802  0.32486  1.0000
  H   H56       1.0  0.34682  0.16653  0.27418  1.0000
  Cu  Cu12      1.0  0.36781  0.09665  0.36645  1.0000
  C   C201      1.0  0.30156  0.34615  0.28907  1.0000
  C   C202      1.0  0.28021  0.36091  0.31088  1.0000
  C   C203      1.0  0.28800  0.38081  0.34105  1.0000
  C   C204      1.0  0.31715  0.38600  0.34949  1.0000
  C   C205      1.0  0.33859  0.37121  0.32763  1.0000
  C   C206      1.0  0.33072  0.35131  0.29746  1.0000
  O   O81       1.0  0.29392  0.32663  0.25946  1.0000
  O   O82       1.0  0.25162  0.35585  0.30265  1.0000
  H   H57       1.0  0.27216  0.39172  0.35716  1.0000
  O   O83       1.0  0.32471  0.40557  0.37916  1.0000
  O   O84       1.0  0.36727  0.37619  0.33575  1.0000
  H   H58       1.0  0.34653  0.34038  0.28132  1.0000
  Cu  Cu13      1.0  0.36766  0.40561  0.38012  1.0000
  C   C207      1.0  0.72583  0.14577  0.30358  1.0000
  C   C208      1.0  0.70449  0.16118  0.28265  1.0000
  C   C209      1.0  0.67532  0.15530  0.28986  1.0000
  C   C210      1.0  0.66740  0.13401  0.31802  1.0000
  C   C211      1.0  0.68878  0.11854  0.33904  1.0000
  C   C212      1.0  0.71795  0.12447  0.33175  1.0000
  O   O85       1.0  0.75445  0.15153  0.29651  1.0000
  O   O86       1.0  0.71221  0.18207  0.25503  1.0000
  H   H59       1.0  0.65956  0.16674  0.27433  1.0000
  O   O87       1.0  0.63872  0.12831  0.32501  1.0000
  O   O88       1.0  0.68117  0.09758  0.36675  1.0000
  H   H60       1.0  0.73374  0.11306  0.34725  1.0000
  Cu  Cu14      1.0  0.63817  0.09700  0.36663  1.0000
  C   C213      1.0  0.30182  0.66114  0.73441  1.0000
  C   C214      1.0  0.28044  0.64573  0.71357  1.0000
  C   C215      1.0  0.28819  0.62442  0.68537  1.0000
  C   C216      1.0  0.31733  0.61845  0.67795  1.0000
  C   C217      1.0  0.33880  0.63389  0.69885  1.0000
  C   C218      1.0  0.33097  0.65520  0.72704  1.0000
  O   O89       1.0  0.29422  0.68205  0.76208  1.0000
  O   O90       1.0  0.25186  0.65155  0.72080  1.0000
  H   H61       1.0  0.27233  0.61304  0.66997  1.0000
  O   O91       1.0  0.32484  0.59749  0.65023  1.0000
  O   O92       1.0  0.36747  0.62814  0.69171  1.0000
  H   H62       1.0  0.34680  0.66660  0.74247  1.0000
  Cu  Cu15      1.0  0.36780  0.59680  0.65007  1.0000
  C   C219      1.0  0.72569  0.86088  0.70630  1.0000
  C   C220      1.0  0.70434  0.84609  0.72807  1.0000
  C   C221      1.0  0.67517  0.85118  0.71969  1.0000
  C   C222      1.0  0.66728  0.87107  0.68954  1.0000
  C   C223      1.0  0.68868  0.88593  0.66769  1.0000
  C   C224      1.0  0.71785  0.88078  0.67614  1.0000
  O   O93       1.0  0.75431  0.85589  0.71452  1.0000
  O   O94       1.0  0.71203  0.82658  0.75764  1.0000
  H   H63       1.0  0.65940  0.84021  0.73584  1.0000
  O   O95       1.0  0.63860  0.87601  0.68142  1.0000
  O   O96       1.0  0.68110  0.90550  0.63802  1.0000
  H   H64       1.0  0.73365  0.89174  0.66003  1.0000
  Cu  Cu16      1.0  0.63810  0.90541  0.63712  1.0000
  C   C225      1.0  0.25308  0.25499  0.21950  1.0000
  C   C226      1.0  0.25302  0.27844  0.23976  1.0000
  C   C227      1.0  0.25302  0.27775  0.27859  1.0000
  C   C228      1.0  0.25308  0.25362  0.29717  1.0000
  C   C229      1.0  0.25315  0.23018  0.27691  1.0000
  C   C230      1.0  0.25315  0.23087  0.23808  1.0000
  H   H65       1.0  0.25309  0.25551  0.19038  1.0000
  O   O97       1.0  0.25296  0.30015  0.22304  1.0000
  O   O98       1.0  0.25296  0.29885  0.29682  1.0000
  H   H66       1.0  0.25308  0.25311  0.32629  1.0000
  O   O99       1.0  0.25321  0.20847  0.29363  1.0000
  O   O100      1.0  0.25321  0.20977  0.21985  1.0000
  C   C231      1.0  0.75301  0.25479  0.21942  1.0000
  C   C232      1.0  0.75308  0.23077  0.23826  1.0000
  C   C233      1.0  0.75308  0.23029  0.27710  1.0000
  C   C234      1.0  0.75301  0.25384  0.29710  1.0000
  C   C235      1.0  0.75294  0.27787  0.27827  1.0000
  C   C236      1.0  0.75294  0.27834  0.23943  1.0000
  H   H67       1.0  0.75301  0.25515  0.19030  1.0000
  O   O101      1.0  0.75313  0.20958  0.22026  1.0000
  O   O102      1.0  0.75314  0.20867  0.29405  1.0000
  H   H68       1.0  0.75301  0.25349  0.32623  1.0000
  O   O103      1.0  0.75289  0.29906  0.29627  1.0000
  O   O104      1.0  0.75288  0.29997  0.22247  1.0000
  C   C237      1.0  0.25307  0.75501  0.79721  1.0000
  C   C238      1.0  0.25314  0.73088  0.77864  1.0000
  C   C239      1.0  0.25313  0.73019  0.73981  1.0000
  C   C240      1.0  0.25307  0.75363  0.71955  1.0000
  C   C241      1.0  0.25301  0.77776  0.73812  1.0000
  C   C242      1.0  0.25301  0.77845  0.77695  1.0000
  H   H69       1.0  0.25307  0.75553  0.82634  1.0000
  O   O105      1.0  0.25319  0.70979  0.79687  1.0000
  O   O106      1.0  0.25319  0.70848  0.72309  1.0000
  H   H70       1.0  0.25307  0.75312  0.69043  1.0000
  O   O107      1.0  0.25295  0.79886  0.71989  1.0000
  O   O108      1.0  0.25295  0.80016  0.79367  1.0000
  C   C243      1.0  0.75315  0.75383  0.71938  1.0000
  C   C244      1.0  0.75308  0.77786  0.73822  1.0000
  C   C245      1.0  0.75308  0.77833  0.77706  1.0000
  C   C246      1.0  0.75314  0.75478  0.79706  1.0000
  C   C247      1.0  0.75321  0.73076  0.77822  1.0000
  C   C248      1.0  0.75321  0.73028  0.73938  1.0000
  H   H71       1.0  0.75315  0.75347  0.69025  1.0000
  O   O109      1.0  0.75303  0.79905  0.72022  1.0000
  O   O110      1.0  0.75302  0.79995  0.79401  1.0000
  H   H72       1.0  0.75314  0.75514  0.82619  1.0000
  O   O111      1.0  0.75326  0.70956  0.79622  1.0000
  O   O112      1.0  0.75327  0.70866  0.72243  1.0000
