data_image0
_chemical_formula_structural       C7NCNCNC3NCNC11NCNC7NHO2H2O2H2O2H2O2HNiC7NCNCNC3NCNC11NCNC7NHO2H2O2H2O2H2O2HNiC7NCNCNC3NCNC11NCNC7NHO2H2O2H2O2H2O2HNiC7NCNCNC3NCNC11NCNC7NHO2H2O2H2O2H2O2HNiFe8C6HO2HO2C6HO2HO2C6HO2HO2C6HO2HO2
_chemical_formula_sum              "C152 N32 H40 O48 Ni4 Fe8"
_cell_length_a       27.3206
_cell_length_b       34.247
_cell_length_c       19.3092
_cell_angle_alpha    90.0005
_cell_angle_beta     90.0006
_cell_angle_gamma    90.0004

_space_group_name_H-M_alt    "P 1"
_space_group_IT_number       1

loop_
  _space_group_symop_operation_xyz
  'x, y, z'

loop_
  _atom_site_type_symbol
  _atom_site_label
  _atom_site_symmetry_multiplicity
  _atom_site_fract_x
  _atom_site_fract_y
  _atom_site_fract_z
  _atom_site_occupancy
  C   C1        1.0  0.81278  0.07291  0.11393  1.0000
  C   C2        1.0  0.79842  0.10377  0.16887  1.0000
  C   C3        1.0  0.83869  0.12640  0.20934  1.0000
  C   C4        1.0  0.89351  0.11826  0.19509  1.0000
  C   C5        1.0  0.90596  0.08748  0.14031  1.0000
  C   C6        1.0  0.86745  0.06586  0.10156  1.0000
  C   C7        1.0  0.89312  0.03784  0.05176  1.0000
  N   N1        1.0  0.94880  0.04164  0.05886  1.0000
  C   C8        1.0  0.95570  0.07296  0.11472  1.0000
  N   N2        1.0  0.00214  0.08829  0.14236  1.0000
  C   C9        1.0  0.04858  0.07285  0.11494  1.0000
  N   N3        1.0  0.05549  0.04153  0.05908  1.0000
  C   C10       1.0  0.11117  0.03767  0.05209  1.0000
  C   C11       1.0  0.13684  0.06564  0.10200  1.0000
  C   C12       1.0  0.09833  0.08730  0.14066  1.0000
  N   N4        1.0  0.05550  0.98139  0.95226  1.0000
  C   C13       1.0  0.11118  0.98537  0.95903  1.0000
  N   N5        1.0  0.13857  0.01161  0.00541  1.0000
  C   C14       1.0  0.13685  0.95725  0.90938  1.0000
  C   C15       1.0  0.09833  0.93540  0.87106  1.0000
  C   C16       1.0  0.04860  0.94985  0.89679  1.0000
  C   C17       1.0  0.11079  0.11810  0.19541  1.0000
  C   C18       1.0  0.16561  0.12618  0.20974  1.0000
  C   C19       1.0  0.20587  0.10347  0.16941  1.0000
  C   C20       1.0  0.19150  0.07263  0.11444  1.0000
  C   C21       1.0  0.11076  0.90451  0.81648  1.0000
  C   C22       1.0  0.16558  0.89650  0.80198  1.0000
  C   C23       1.0  0.20584  0.91931  0.84209  1.0000
  C   C24       1.0  0.19150  0.95028  0.89686  1.0000
  N   N6        1.0  0.94881  0.98136  0.95230  1.0000
  C   C25       1.0  0.95573  0.94981  0.89684  1.0000
  N   N7        1.0  0.00216  0.93427  0.86962  1.0000
  C   C26       1.0  0.90601  0.93534  0.87114  1.0000
  C   C27       1.0  0.86748  0.95720  0.90941  1.0000
  C   C28       1.0  0.89313  0.98536  0.95901  1.0000
  C   C29       1.0  0.81282  0.95017  0.89695  1.0000
  C   C30       1.0  0.79850  0.91911  0.84233  1.0000
  C   C31       1.0  0.83879  0.89631  0.80222  1.0000
  C   C32       1.0  0.89360  0.90441  0.81662  1.0000
  N   N8        1.0  0.86574  0.01170  0.00519  1.0000
  H   H1        1.0  0.78606  0.05739  0.08618  1.0000
  O   O1        1.0  0.75249  0.11081  0.18127  1.0000
  O   O2        1.0  0.82622  0.15227  0.25534  1.0000
  H   H2        1.0  0.92113  0.13326  0.22196  1.0000
  H   H3        1.0  0.08318  0.13316  0.22220  1.0000
  O   O3        1.0  0.17808  0.15208  0.25568  1.0000
  O   O4        1.0  0.25180  0.11043  0.18193  1.0000
  H   H4        1.0  0.21821  0.05707  0.08676  1.0000
  H   H5        1.0  0.08315  0.88936  0.78988  1.0000
  O   O5        1.0  0.17802  0.87059  0.75603  1.0000
  O   O6        1.0  0.25177  0.91234  0.82955  1.0000
  H   H6        1.0  0.21824  0.96592  0.92437  1.0000
  H   H7        1.0  0.78608  0.96582  0.92443  1.0000
  O   O7        1.0  0.75258  0.91203  0.82994  1.0000
  O   O8        1.0  0.82636  0.87033  0.75640  1.0000
  H   H8        1.0  0.92123  0.88926  0.79003  1.0000
  Ni  Ni1       1.0  0.00214  0.01153  0.00554  1.0000
  C   C33       1.0  0.81284  0.45035  0.11565  1.0000
  C   C34       1.0  0.79850  0.41935  0.17036  1.0000
  C   C35       1.0  0.83879  0.39653  0.21045  1.0000
  C   C36       1.0  0.89361  0.40457  0.19598  1.0000
  C   C37       1.0  0.90603  0.43547  0.14141  1.0000
  C   C38       1.0  0.86750  0.45733  0.10312  1.0000
  C   C39       1.0  0.89315  0.48542  0.05342  1.0000
  N   N9        1.0  0.94883  0.48143  0.06013  1.0000
  C   C40       1.0  0.95576  0.44991  0.11564  1.0000
  N   N10       1.0  0.00221  0.43433  0.14277  1.0000
  C   C41       1.0  0.04864  0.44980  0.11538  1.0000
  N   N11       1.0  0.05552  0.48131  0.05985  1.0000
  C   C42       1.0  0.11120  0.48526  0.05297  1.0000
  C   C43       1.0  0.13689  0.45711  0.10253  1.0000
  C   C44       1.0  0.09840  0.43529  0.14096  1.0000
  N   N12       1.0  0.05549  0.54157  0.95325  1.0000
  C   C45       1.0  0.11118  0.53776  0.96025  1.0000
  N   N13       1.0  0.13858  0.51160  0.00675  1.0000
  C   C46       1.0  0.13682  0.56577  0.91039  1.0000
  C   C47       1.0  0.09829  0.58738  0.87169  1.0000
  C   C48       1.0  0.04856  0.57286  0.89734  1.0000
  C   C49       1.0  0.11088  0.40441  0.19553  1.0000
  C   C50       1.0  0.16571  0.39633  0.20983  1.0000
  C   C51       1.0  0.20595  0.41909  0.16954  1.0000
  C   C52       1.0  0.19156  0.45009  0.11487  1.0000
  C   C53       1.0  0.11070  0.61817  0.81692  1.0000
  C   C54       1.0  0.16550  0.62635  0.80268  1.0000
  C   C55       1.0  0.20579  0.60373  0.84309  1.0000
  C   C56       1.0  0.19147  0.57284  0.89800  1.0000
  N   N14       1.0  0.94880  0.54154  0.95327  1.0000
  C   C57       1.0  0.95570  0.57283  0.89734  1.0000
  N   N15       1.0  0.00212  0.58818  0.86975  1.0000
  C   C58       1.0  0.90596  0.58732  0.87172  1.0000
  C   C59       1.0  0.86745  0.56573  0.91050  1.0000
  C   C60       1.0  0.89313  0.53775  0.96040  1.0000
  C   C61       1.0  0.81279  0.57275  0.89808  1.0000
  C   C62       1.0  0.79844  0.60356  0.84303  1.0000
  C   C63       1.0  0.83872  0.62619  0.80258  1.0000
  C   C64       1.0  0.89353  0.61807  0.81690  1.0000
  N   N16       1.0  0.86576  0.51169  0.00712  1.0000
  H   H9        1.0  0.78611  0.46600  0.08815  1.0000
  O   O9        1.0  0.75258  0.41235  0.18288  1.0000
  O   O10       1.0  0.82634  0.37058  0.25632  1.0000
  H   H10       1.0  0.92123  0.38942  0.22256  1.0000
  H   H11       1.0  0.08329  0.38929  0.22225  1.0000
  O   O11       1.0  0.17820  0.37041  0.25573  1.0000
  O   O12       1.0  0.25189  0.41203  0.18185  1.0000
  H   H12       1.0  0.21826  0.46571  0.08727  1.0000
  H   H13       1.0  0.08307  0.63317  0.79008  1.0000
  O   O13       1.0  0.17793  0.65227  0.75675  1.0000
  O   O14       1.0  0.25171  0.61081  0.83071  1.0000
  H   H14       1.0  0.21822  0.55732  0.92570  1.0000
  H   H15       1.0  0.78606  0.55725  0.92584  1.0000
  O   O15       1.0  0.75252  0.61055  0.83051  1.0000
  O   O16       1.0  0.82626  0.65204  0.75653  1.0000
  H   H16       1.0  0.92115  0.63307  0.79003  1.0000
  Ni  Ni2       1.0  0.00216  0.51151  0.00671  1.0000
  C   C65       1.0  0.31276  0.57271  0.61443  1.0000
  C   C66       1.0  0.29838  0.60357  0.66937  1.0000
  C   C67       1.0  0.33864  0.62620  0.70986  1.0000
  C   C68       1.0  0.39347  0.61806  0.69564  1.0000
  C   C69       1.0  0.40593  0.58728  0.64088  1.0000
  C   C70       1.0  0.36743  0.56567  0.60210  1.0000
  C   C71       1.0  0.39311  0.53764  0.55232  1.0000
  N   N17       1.0  0.44879  0.54144  0.55944  1.0000
  C   C72       1.0  0.45568  0.57276  0.61531  1.0000
  N   N18       1.0  0.50211  0.58809  0.64297  1.0000
  C   C73       1.0  0.54856  0.57265  0.61558  1.0000
  N   N19       1.0  0.55548  0.54133  0.55973  1.0000
  C   C74       1.0  0.61117  0.53747  0.55277  1.0000
  C   C75       1.0  0.63682  0.56544  0.60269  1.0000
  C   C76       1.0  0.59830  0.58710  0.64133  1.0000
  N   N20       1.0  0.55552  0.48119  0.45291  1.0000
  C   C77       1.0  0.61120  0.48516  0.45971  1.0000
  N   N21       1.0  0.63857  0.51141  0.50610  1.0000
  C   C78       1.0  0.63688  0.45704  0.41008  1.0000
  C   C79       1.0  0.59838  0.43520  0.37174  1.0000
  C   C80       1.0  0.54863  0.44965  0.39743  1.0000
  C   C81       1.0  0.61074  0.61790  0.69608  1.0000
  C   C82       1.0  0.66556  0.62598  0.71044  1.0000
  C   C83       1.0  0.70583  0.60327  0.67014  1.0000
  C   C84       1.0  0.69147  0.57242  0.61517  1.0000
  C   C85       1.0  0.61082  0.40431  0.31716  1.0000
  C   C86       1.0  0.66564  0.39629  0.30269  1.0000
  C   C87       1.0  0.70590  0.41911  0.34283  1.0000
  C   C88       1.0  0.69154  0.45007  0.39758  1.0000
  N   N22       1.0  0.44884  0.48116  0.45288  1.0000
  C   C89       1.0  0.45577  0.44961  0.39743  1.0000
  N   N23       1.0  0.50221  0.43406  0.37024  1.0000
  C   C90       1.0  0.40605  0.43514  0.37170  1.0000
  C   C91       1.0  0.36751  0.45700  0.40995  1.0000
  C   C92       1.0  0.39315  0.48516  0.45956  1.0000
  C   C93       1.0  0.31286  0.44998  0.39746  1.0000
  C   C94       1.0  0.29855  0.41891  0.34284  1.0000
  C   C95       1.0  0.33885  0.39611  0.30275  1.0000
  C   C96       1.0  0.39366  0.40421  0.31718  1.0000
  N   N24       1.0  0.36575  0.51150  0.50573  1.0000
  H   H17       1.0  0.28605  0.55719  0.58667  1.0000
  O   O17       1.0  0.25245  0.61062  0.68174  1.0000
  O   O18       1.0  0.32616  0.65207  0.75585  1.0000
  H   H18       1.0  0.42108  0.63307  0.72253  1.0000
  H   H19       1.0  0.58313  0.63296  0.72286  1.0000
  O   O19       1.0  0.67802  0.65188  0.75640  1.0000
  O   O20       1.0  0.75176  0.61023  0.68268  1.0000
  H   H20       1.0  0.71820  0.55686  0.58750  1.0000
  H   H21       1.0  0.58322  0.38915  0.29054  1.0000
  O   O21       1.0  0.67810  0.37039  0.25676  1.0000
  O   O22       1.0  0.75183  0.41214  0.33031  1.0000
  H   H22       1.0  0.71827  0.46571  0.42511  1.0000
  H   H23       1.0  0.28611  0.46562  0.42493  1.0000
  O   O23       1.0  0.25264  0.41183  0.33042  1.0000
  O   O24       1.0  0.32643  0.37013  0.25692  1.0000
  H   H24       1.0  0.42130  0.38906  0.29061  1.0000
  Ni  Ni3       1.0  0.50215  0.51133  0.50616  1.0000
  C   C97       1.0  0.69154  0.94962  0.61392  1.0000
  C   C98       1.0  0.70590  0.91876  0.66886  1.0000
  C   C99       1.0  0.66563  0.89613  0.70933  1.0000
  C   C100      1.0  0.61081  0.90427  0.69507  1.0000
  C   C101      1.0  0.59836  0.93505  0.64030  1.0000
  C   C102      1.0  0.63687  0.95667  0.60155  1.0000
  C   C103      1.0  0.61120  0.98469  0.55176  1.0000
  N   N25       1.0  0.55552  0.98089  0.55885  1.0000
  C   C104      1.0  0.54862  0.94957  0.61471  1.0000
  N   N26       1.0  0.50218  0.93425  0.64234  1.0000
  C   C105      1.0  0.45574  0.94968  0.61493  1.0000
  N   N27       1.0  0.44883  0.98100  0.55907  1.0000
  C   C106      1.0  0.39315  0.98486  0.55208  1.0000
  C   C107      1.0  0.36749  0.95689  0.60199  1.0000
  C   C108      1.0  0.40599  0.93523  0.64065  1.0000
  N   N28       1.0  0.44882  0.04114  0.45226  1.0000
  C   C109      1.0  0.39314  0.03717  0.45902  1.0000
  N   N29       1.0  0.36575  0.01093  0.50540  1.0000
  C   C110      1.0  0.36747  0.06529  0.40938  1.0000
  C   C111      1.0  0.40599  0.08714  0.37106  1.0000
  C   C112      1.0  0.45573  0.07269  0.39678  1.0000
  C   C113      1.0  0.39354  0.90444  0.69539  1.0000
  C   C114      1.0  0.33871  0.89635  0.70972  1.0000
  C   C115      1.0  0.29845  0.91906  0.66939  1.0000
  C   C116      1.0  0.31282  0.94991  0.61443  1.0000
  C   C117      1.0  0.39356  0.11803  0.31648  1.0000
  C   C118      1.0  0.33874  0.12604  0.30198  1.0000
  C   C119      1.0  0.29848  0.10322  0.34209  1.0000
  C   C120      1.0  0.31282  0.07226  0.39685  1.0000
  N   N30       1.0  0.55551  0.04117  0.45229  1.0000
  C   C121      1.0  0.54859  0.07272  0.39683  1.0000
  N   N31       1.0  0.50216  0.08827  0.36962  1.0000
  C   C122      1.0  0.59831  0.08719  0.37113  1.0000
  C   C123      1.0  0.63684  0.06533  0.40940  1.0000
  C   C124      1.0  0.61119  0.03717  0.45900  1.0000
  C   C125      1.0  0.69150  0.07236  0.39694  1.0000
  C   C126      1.0  0.70582  0.10342  0.34233  1.0000
  C   C127      1.0  0.66553  0.12622  0.30222  1.0000
  C   C128      1.0  0.61072  0.11812  0.31662  1.0000
  N   N32       1.0  0.63858  0.01083  0.50519  1.0000
  H   H25       1.0  0.71826  0.96514  0.58617  1.0000
  O   O25       1.0  0.75183  0.91172  0.68126  1.0000
  O   O26       1.0  0.67810  0.87026  0.75533  1.0000
  H   H26       1.0  0.58319  0.88927  0.72194  1.0000
  H   H27       1.0  0.42114  0.88938  0.72219  1.0000
  O   O27       1.0  0.32624  0.87045  0.75567  1.0000
  O   O28       1.0  0.25252  0.91210  0.68191  1.0000
  H   H28       1.0  0.28611  0.96547  0.58675  1.0000
  H   H29       1.0  0.42117  0.13318  0.28988  1.0000
  O   O29       1.0  0.32630  0.15195  0.25603  1.0000
  O   O30       1.0  0.25255  0.11019  0.32954  1.0000
  H   H30       1.0  0.28608  0.05662  0.42436  1.0000
  H   H31       1.0  0.71824  0.05671  0.42442  1.0000
  O   O31       1.0  0.75174  0.11050  0.32994  1.0000
  O   O32       1.0  0.67796  0.15220  0.25640  1.0000
  H   H32       1.0  0.58309  0.13327  0.29003  1.0000
  Ni  Ni4       1.0  0.50218  0.01100  0.50554  1.0000
  Fe  Fe1       1.0  0.25218  0.15230  0.25597  1.0000
  Fe  Fe2       1.0  0.75223  0.37024  0.25642  1.0000
  Fe  Fe3       1.0  0.25214  0.87025  0.75597  1.0000
  Fe  Fe4       1.0  0.75213  0.65230  0.75633  1.0000
  Fe  Fe5       1.0  0.75222  0.87023  0.75589  1.0000
  Fe  Fe6       1.0  0.25205  0.65231  0.75606  1.0000
  Fe  Fe7       1.0  0.75211  0.15231  0.25591  1.0000
  Fe  Fe8       1.0  0.25231  0.37024  0.25598  1.0000
  C   C129      1.0  0.25224  0.26125  0.18346  1.0000
  C   C130      1.0  0.25227  0.29666  0.21969  1.0000
  C   C131      1.0  0.25228  0.29668  0.29220  1.0000
  C   C132      1.0  0.25226  0.26128  0.32847  1.0000
  C   C133      1.0  0.25222  0.22587  0.29223  1.0000
  C   C134      1.0  0.25221  0.22586  0.21973  1.0000
  H   H33       1.0  0.25223  0.26125  0.12908  1.0000
  O   O33       1.0  0.25229  0.32852  0.18705  1.0000
  O   O34       1.0  0.25232  0.32854  0.32481  1.0000
  H   H34       1.0  0.25227  0.26129  0.38284  1.0000
  O   O35       1.0  0.25220  0.19401  0.32488  1.0000
  O   O36       1.0  0.25218  0.19399  0.18712  1.0000
  C   C135      1.0  0.75218  0.26134  0.18367  1.0000
  C   C136      1.0  0.75215  0.22590  0.21982  1.0000
  C   C137      1.0  0.75213  0.22584  0.29233  1.0000
  C   C138      1.0  0.75216  0.26121  0.32868  1.0000
  C   C139      1.0  0.75219  0.29665  0.29253  1.0000
  C   C140      1.0  0.75220  0.29671  0.22002  1.0000
  H   H35       1.0  0.75219  0.26139  0.12929  1.0000
  O   O37       1.0  0.75213  0.19407  0.18711  1.0000
  O   O38       1.0  0.75210  0.19395  0.32486  1.0000
  H   H36       1.0  0.75215  0.26116  0.38306  1.0000
  O   O39       1.0  0.75221  0.32848  0.32524  1.0000
  O   O40       1.0  0.75223  0.32860  0.18748  1.0000
  C   C141      1.0  0.25208  0.76128  0.68350  1.0000
  C   C142      1.0  0.25207  0.72587  0.71976  1.0000
  C   C143      1.0  0.25207  0.72588  0.79226  1.0000
  C   C144      1.0  0.25210  0.76128  0.82851  1.0000
  C   C145      1.0  0.25212  0.79668  0.79226  1.0000
  C   C146      1.0  0.25211  0.79668  0.71975  1.0000
  H   H37       1.0  0.25208  0.76128  0.62913  1.0000
  O   O41       1.0  0.25204  0.69401  0.68713  1.0000
  O   O42       1.0  0.25206  0.69401  0.82489  1.0000
  H   H38       1.0  0.25210  0.76128  0.88289  1.0000
  O   O43       1.0  0.25214  0.82854  0.82488  1.0000
  O   O44       1.0  0.25213  0.82854  0.68713  1.0000
  C   C147      1.0  0.75216  0.76121  0.68361  1.0000
  C   C148      1.0  0.75219  0.79664  0.71978  1.0000
  C   C149      1.0  0.75220  0.79669  0.79228  1.0000
  C   C150      1.0  0.75219  0.76132  0.82862  1.0000
  C   C151      1.0  0.75216  0.72589  0.79245  1.0000
  C   C152      1.0  0.75215  0.72583  0.71994  1.0000
  H   H39       1.0  0.75216  0.76117  0.62923  1.0000
  O   O45       1.0  0.75220  0.82848  0.68708  1.0000
  O   O46       1.0  0.75222  0.82858  0.82483  1.0000
  H   H40       1.0  0.75219  0.76136  0.88299  1.0000
  O   O47       1.0  0.75215  0.69405  0.82515  1.0000
  O   O48       1.0  0.75213  0.69395  0.68739  1.0000
