data_image0
_chemical_formula_structural       C7NCNCNC3NCNC11NCNC7NHO2H2O2H2O2H2O2HNiC7NCNCNC3NCNC11NCNC7NHO2H2O2H2O2H2O2HNiC7NCNCNC3NCNC11NCNC7NHO2H2O2H2O2H2O2HNiZn4Cu2
_chemical_formula_sum              "C96 N24 H24 O24 Ni3 Zn4 Cu2"
_cell_length_a       38.4794
_cell_length_b       38.4785
_cell_length_c       19.2398
_cell_angle_alpha    90.0031
_cell_angle_beta     90.0031
_cell_angle_gamma    89.9984

_space_group_name_H-M_alt    "P 1"
_space_group_IT_number       1

loop_
  _space_group_symop_operation_xyz
  'x, y, z'

loop_
  _atom_site_type_symbol
  _atom_site_label
  _atom_site_symmetry_multiplicity
  _atom_site_fract_x
  _atom_site_fract_y
  _atom_site_fract_z
  _atom_site_occupancy
  C   C1        1.0  0.96058  0.85661  0.00010  1.0000
  C   C2        1.0  0.98089  0.82187  0.00010  1.0000
  C   C3        1.0  0.02133  0.82187  0.00010  1.0000
  C   C4        1.0  0.04165  0.85660  0.00010  1.0000
  C   C5        1.0  0.02046  0.89028  0.00010  1.0000
  C   C6        1.0  0.98178  0.89029  0.00010  1.0000
  C   C7        1.0  0.96970  0.92814  0.00010  1.0000
  N   N1        1.0  0.00112  0.95263  0.00010  1.0000
  C   C8        1.0  0.03255  0.92814  0.00010  1.0000
  N   N2        1.0  0.06961  0.93770  0.99990  1.0000
  C   C9        1.0  0.07918  0.97477  0.99990  1.0000
  N   N3        1.0  0.05469  0.00619  0.00010  1.0000
  C   C10       1.0  0.07917  0.03762  0.00010  1.0000
  C   C11       1.0  0.11702  0.02554  0.00010  1.0000
  C   C12       1.0  0.11703  0.98686  0.99990  1.0000
  N   N4        1.0  0.00113  0.05976  0.00010  1.0000
  C   C13       1.0  0.03255  0.08425  0.00010  1.0000
  N   N5        1.0  0.06961  0.07468  0.00010  1.0000
  C   C14       1.0  0.02046  0.12210  0.00010  1.0000
  C   C15       1.0  0.98178  0.12210  0.00010  1.0000
  C   C16       1.0  0.96970  0.08424  0.00010  1.0000
  C   C17       1.0  0.15073  0.96568  0.99990  1.0000
  C   C18       1.0  0.18544  0.98601  0.99990  1.0000
  C   C19       1.0  0.18543  0.02645  0.99990  1.0000
  C   C20       1.0  0.15070  0.04675  0.00010  1.0000
  C   C21       1.0  0.96058  0.15578  0.00010  1.0000
  C   C22       1.0  0.98089  0.19051  0.00010  1.0000
  C   C23       1.0  0.02133  0.19051  0.00010  1.0000
  C   C24       1.0  0.04165  0.15579  0.00010  1.0000
  N   N6        1.0  0.94757  0.00619  0.00010  1.0000
  C   C25       1.0  0.92308  0.03762  0.99990  1.0000
  N   N7        1.0  0.93264  0.07468  0.99990  1.0000
  C   C26       1.0  0.88523  0.02554  0.99990  1.0000
  C   C27       1.0  0.88522  0.98687  0.00010  1.0000
  C   C28       1.0  0.92308  0.97477  0.00010  1.0000
  C   C29       1.0  0.85153  0.96568  0.00010  1.0000
  C   C30       1.0  0.81681  0.98601  0.00010  1.0000
  C   C31       1.0  0.81683  0.02645  0.99990  1.0000
  C   C32       1.0  0.85156  0.04676  0.99990  1.0000
  N   N8        1.0  0.93264  0.93771  0.00010  1.0000
  H   H1        1.0  0.93329  0.85706  0.00010  1.0000
  O   O1        1.0  0.96408  0.79257  0.00010  1.0000
  O   O2        1.0  0.03813  0.79256  0.00010  1.0000
  H   H2        1.0  0.06893  0.85704  0.00010  1.0000
  H   H3        1.0  0.15030  0.93840  0.99990  1.0000
  O   O3        1.0  0.21476  0.96922  0.99990  1.0000
  O   O4        1.0  0.21473  0.04327  0.99990  1.0000
  H   H4        1.0  0.15024  0.07404  0.00010  1.0000
  H   H5        1.0  0.93330  0.15533  0.99990  1.0000
  O   O5        1.0  0.96408  0.21981  0.00010  1.0000
  O   O6        1.0  0.03813  0.21982  0.00010  1.0000
  H   H6        1.0  0.06894  0.15535  0.00010  1.0000
  H   H7        1.0  0.85197  0.93839  0.00010  1.0000
  O   O7        1.0  0.78750  0.96921  0.99990  1.0000
  O   O8        1.0  0.78752  0.04327  0.99990  1.0000
  H   H8        1.0  0.85202  0.07404  0.99990  1.0000
  Ni  Ni1       1.0  0.00112  0.00619  0.00010  1.0000
  C   C33       1.0  0.00010  0.46563  0.29939  1.0000
  C   C34       1.0  0.00010  0.48595  0.36885  1.0000
  C   C35       1.0  0.00010  0.52639  0.36886  1.0000
  C   C36       1.0  0.00104  0.54671  0.29941  1.0000
  C   C37       1.0  0.00010  0.52551  0.23204  1.0000
  C   C38       1.0  0.00010  0.48684  0.23203  1.0000
  C   C39       1.0  0.00010  0.47476  0.15632  1.0000
  N   N9        1.0  0.00010  0.50618  0.10736  1.0000
  C   C40       1.0  0.00101  0.53760  0.15633  1.0000
  N   N10       1.0  0.00117  0.57467  0.13720  1.0000
  C   C41       1.0  0.00115  0.58424  0.06308  1.0000
  N   N11       1.0  0.00103  0.55975  0.00010  1.0000
  C   C42       1.0  0.00010  0.58423  0.93738  1.0000
  C   C43       1.0  0.00109  0.62208  0.96154  1.0000
  C   C44       1.0  0.00119  0.62209  0.03889  1.0000
  N   N12       1.0  0.00010  0.50618  0.89310  1.0000
  C   C45       1.0  0.00010  0.53760  0.84412  1.0000
  N   N13       1.0  0.00010  0.57467  0.86325  1.0000
  C   C46       1.0  0.00010  0.52551  0.76841  1.0000
  C   C47       1.0  0.00107  0.48684  0.76842  1.0000
  C   C48       1.0  0.00111  0.47476  0.84413  1.0000
  C   C49       1.0  0.00124  0.65579  0.08125  1.0000
  C   C50       1.0  0.00124  0.69051  0.04059  1.0000
  C   C51       1.0  0.00121  0.69049  0.95972  1.0000
  C   C52       1.0  0.00111  0.65576  0.91912  1.0000
  C   C53       1.0  0.00114  0.46564  0.70106  1.0000
  C   C54       1.0  0.00103  0.48595  0.63161  1.0000
  C   C55       1.0  0.00010  0.52638  0.63161  1.0000
  C   C56       1.0  0.00010  0.54671  0.70104  1.0000
  N   N14       1.0  0.00010  0.45262  0.00010  1.0000
  C   C57       1.0  0.00116  0.42814  0.93737  1.0000
  N   N15       1.0  0.00128  0.43770  0.86325  1.0000
  C   C58       1.0  0.00115  0.39028  0.96153  1.0000
  C   C59       1.0  0.00010  0.39027  0.03887  1.0000
  C   C60       1.0  0.00010  0.42813  0.06306  1.0000
  C   C61       1.0  0.00010  0.35658  0.08125  1.0000
  C   C62       1.0  0.00114  0.32187  0.04058  1.0000
  C   C63       1.0  0.00125  0.32188  0.95971  1.0000
  C   C64       1.0  0.00126  0.35661  0.91910  1.0000
  N   N16       1.0  0.00010  0.43770  0.13718  1.0000
  H   H9        1.0  0.00010  0.43835  0.29849  1.0000
  O   O9        1.0  0.00010  0.46914  0.42746  1.0000
  O   O10       1.0  0.00103  0.54319  0.42748  1.0000
  H   H10       1.0  0.00113  0.57399  0.29852  1.0000
  H   H11       1.0  0.00128  0.65536  0.13582  1.0000
  O   O11       1.0  0.00125  0.71982  0.07417  1.0000
  O   O12       1.0  0.00127  0.71979  0.92607  1.0000
  H   H12       1.0  0.00108  0.65530  0.86455  1.0000
  H   H13       1.0  0.00123  0.43835  0.70195  1.0000
  O   O13       1.0  0.00102  0.46914  0.57300  1.0000
  O   O14       1.0  0.00010  0.54319  0.57299  1.0000
  H   H14       1.0  0.00010  0.57399  0.70192  1.0000
  H   H15       1.0  0.00010  0.35702  0.13581  1.0000
  O   O15       1.0  0.00120  0.29255  0.07418  1.0000
  O   O16       1.0  0.00133  0.29257  0.92607  1.0000
  H   H16       1.0  0.00135  0.35707  0.86453  1.0000
  Ni  Ni2       1.0  0.00010  0.50618  0.00010  1.0000
  C   C65       1.0  0.46058  0.00661  0.29939  1.0000
  C   C66       1.0  0.48089  0.00652  0.36885  1.0000
  C   C67       1.0  0.52133  0.00640  0.36886  1.0000
  C   C68       1.0  0.54166  0.00634  0.29941  1.0000
  C   C69       1.0  0.52046  0.00641  0.23204  1.0000
  C   C70       1.0  0.48179  0.00657  0.23203  1.0000
  C   C71       1.0  0.46970  0.00661  0.15632  1.0000
  N   N17       1.0  0.50113  0.00649  0.10736  1.0000
  C   C72       1.0  0.53255  0.00637  0.15633  1.0000
  N   N18       1.0  0.56961  0.00620  0.13720  1.0000
  C   C73       1.0  0.57918  0.00623  0.06308  1.0000
  N   N19       1.0  0.55469  0.00635  0.00010  1.0000
  C   C74       1.0  0.57917  0.00640  0.93738  1.0000
  C   C75       1.0  0.61703  0.00628  0.96154  1.0000
  C   C76       1.0  0.61704  0.00619  0.03889  1.0000
  N   N20       1.0  0.50113  0.00642  0.89310  1.0000
  C   C77       1.0  0.53255  0.00652  0.84412  1.0000
  N   N21       1.0  0.56961  0.00657  0.86325  1.0000
  C   C78       1.0  0.52046  0.00645  0.76841  1.0000
  C   C79       1.0  0.48179  0.00631  0.76842  1.0000
  C   C80       1.0  0.46970  0.00626  0.84413  1.0000
  C   C81       1.0  0.65073  0.00614  0.08125  1.0000
  C   C82       1.0  0.68545  0.00614  0.04059  1.0000
  C   C83       1.0  0.68543  0.00617  0.95972  1.0000
  C   C84       1.0  0.65070  0.00627  0.91912  1.0000
  C   C85       1.0  0.46058  0.00624  0.70106  1.0000
  C   C86       1.0  0.48089  0.00635  0.63161  1.0000
  C   C87       1.0  0.52133  0.00647  0.63161  1.0000
  C   C88       1.0  0.54165  0.00652  0.70104  1.0000
  N   N22       1.0  0.44757  0.00638  0.00010  1.0000
  C   C89       1.0  0.42308  0.00622  0.93737  1.0000
  N   N23       1.0  0.43264  0.00610  0.86325  1.0000
  C   C90       1.0  0.38523  0.00623  0.96153  1.0000
  C   C91       1.0  0.38522  0.00640  0.03887  1.0000
  C   C92       1.0  0.42308  0.00652  0.06306  1.0000
  C   C93       1.0  0.35153  0.00640  0.08125  1.0000
  C   C94       1.0  0.31682  0.00624  0.04058  1.0000
  C   C95       1.0  0.31683  0.00613  0.95971  1.0000
  C   C96       1.0  0.35156  0.00612  0.91910  1.0000
  N   N24       1.0  0.43264  0.00670  0.13718  1.0000
  H   H17       1.0  0.43330  0.00669  0.29849  1.0000
  O   O17       1.0  0.46408  0.00655  0.42746  1.0000
  O   O18       1.0  0.53813  0.00635  0.42748  1.0000
  H   H18       1.0  0.56894  0.00625  0.29852  1.0000
  H   H19       1.0  0.65030  0.00610  0.13582  1.0000
  O   O19       1.0  0.71476  0.00613  0.07417  1.0000
  O   O20       1.0  0.71473  0.00611  0.92607  1.0000
  H   H20       1.0  0.65024  0.00630  0.86455  1.0000
  H   H21       1.0  0.43330  0.00615  0.70195  1.0000
  O   O21       1.0  0.46408  0.00636  0.57300  1.0000
  O   O22       1.0  0.53813  0.00654  0.57299  1.0000
  H   H22       1.0  0.56894  0.00659  0.70192  1.0000
  H   H23       1.0  0.35197  0.00649  0.13581  1.0000
  O   O23       1.0  0.28750  0.00618  0.07418  1.0000
  O   O24       1.0  0.28752  0.00605  0.92607  1.0000
  H   H24       1.0  0.35202  0.00603  0.86453  1.0000
  Ni  Ni3       1.0  0.50113  0.00647  0.00010  1.0000
  Zn  Zn1       1.0  0.00119  0.25619  0.00010  1.0000
  Zn  Zn2       1.0  0.75113  0.00618  0.99990  1.0000
  Zn  Zn3       1.0  0.00118  0.75618  0.00010  1.0000
  Zn  Zn4       1.0  0.25113  0.00618  0.99990  1.0000
  Cu  Cu1       1.0  0.00010  0.50616  0.50023  1.0000
  Cu  Cu2       1.0  0.50111  0.00645  0.50023  1.0000
