data_image0
_chemical_formula_structural       C7NCNCNC3NCNC11NCNC7NH8C16HO2H2O2H2O2H2O2HNiC7NCNCNC3NCNC11NCNC7NH8C16HO2H2O2H2O2H2O2HNiC7NCNCNC3NCNC11NCNC7NH8C16HO2H2O2H2O2H2O2HNiZn4Cu2
_chemical_formula_sum              "C144 N24 H48 O24 Ni3 Zn4 Cu2"
_cell_length_a       50.1422
_cell_length_b       50.1465
_cell_length_c       25.0722
_cell_angle_alpha    90.2782
_cell_angle_beta     90.2782
_cell_angle_gamma    89.7224

_space_group_name_H-M_alt    "P 1"
_space_group_IT_number       1

loop_
  _space_group_symop_operation_xyz
  'x, y, z'

loop_
  _atom_site_type_symbol
  _atom_site_label
  _atom_site_symmetry_multiplicity
  _atom_site_fract_x
  _atom_site_fract_y
  _atom_site_fract_z
  _atom_site_occupancy
  C   C1        1.0  0.03758  0.88366  0.00010  1.0000
  C   C2        1.0  0.02197  0.85710  0.00010  1.0000
  C   C3        1.0  0.99104  0.85715  0.00010  1.0000
  C   C4        1.0  0.97546  0.88376  0.00010  1.0000
  C   C5        1.0  0.99162  0.90958  0.00010  1.0000
  C   C6        1.0  0.02144  0.90953  0.00010  1.0000
  C   C7        1.0  0.03080  0.93856  0.00010  1.0000
  N   N1        1.0  0.00648  0.95690  0.00010  1.0000
  C   C8        1.0  0.98221  0.93865  0.00010  1.0000
  N   N2        1.0  0.95332  0.94719  0.00010  1.0000
  C   C9        1.0  0.94481  0.97603  0.00010  1.0000
  N   N3        1.0  0.96306  0.00010  0.00010  1.0000
  C   C10       1.0  0.94477  0.02460  0.00010  1.0000
  C   C11       1.0  0.91574  0.01523  0.00010  1.0000
  C   C12       1.0  0.91573  0.98544  0.00010  1.0000
  N   N4        1.0  0.00627  0.04352  0.00010  1.0000
  C   C13       1.0  0.98199  0.06180  0.00010  1.0000
  N   N5        1.0  0.95320  0.05339  0.00010  1.0000
  C   C14       1.0  0.99136  0.09085  0.00010  1.0000
  C   C15       1.0  0.02115  0.09083  0.00010  1.0000
  C   C16       1.0  0.03055  0.06177  0.00010  1.0000
  C   C17       1.0  0.88990  0.96930  0.00010  1.0000
  C   C18       1.0  0.86333  0.98483  0.00010  1.0000
  C   C19       1.0  0.86331  0.01572  0.00010  1.0000
  C   C20       1.0  0.88987  0.03133  0.00010  1.0000
  C   C21       1.0  0.03730  0.11666  0.00010  1.0000
  C   C22       1.0  0.02175  0.14326  0.00010  1.0000
  C   C23       1.0  0.99086  0.14326  0.00010  1.0000
  C   C24       1.0  0.97525  0.11670  0.00010  1.0000
  N   N6        1.0  0.04971  0.00010  0.00010  1.0000
  C   C25       1.0  0.06794  0.02437  0.00010  1.0000
  N   N7        1.0  0.05939  0.05324  0.00010  1.0000
  C   C26       1.0  0.09702  0.01498  0.00010  1.0000
  C   C27       1.0  0.09705  0.98517  0.00010  1.0000
  C   C28       1.0  0.06801  0.97579  0.00010  1.0000
  C   C29       1.0  0.12293  0.96905  0.00010  1.0000
  C   C30       1.0  0.14950  0.98465  0.00010  1.0000
  C   C31       1.0  0.14945  0.01556  0.00010  1.0000
  C   C32       1.0  0.12283  0.03113  0.00010  1.0000
  N   N8        1.0  0.05960  0.94696  0.00010  1.0000
  H   H1        1.0  0.06021  0.88394  0.00010  1.0000
  H   H2        1.0  0.95280  0.88411  0.00010  1.0000
  H   H3        1.0  0.89024  0.94666  0.00010  1.0000
  H   H4        1.0  0.89017  0.05396  0.00010  1.0000
  H   H5        1.0  0.05992  0.11633  0.00010  1.0000
  H   H6        1.0  0.95262  0.11639  0.00010  1.0000
  H   H7        1.0  0.12264  0.94641  0.00010  1.0000
  H   H8        1.0  0.12248  0.05378  0.00010  1.0000
  C   C33       1.0  0.17611  0.96948  0.00010  1.0000
  C   C34       1.0  0.20262  0.98488  0.00010  1.0000
  C   C35       1.0  0.20258  0.01545  0.00010  1.0000
  C   C36       1.0  0.17603  0.03078  0.00010  1.0000
  C   C37       1.0  0.03713  0.83045  0.00010  1.0000
  C   C38       1.0  0.02175  0.80394  0.00010  1.0000
  C   C39       1.0  0.99118  0.80399  0.00010  1.0000
  C   C40       1.0  0.97584  0.83055  0.00010  1.0000
  C   C41       1.0  0.83673  0.96961  0.00010  1.0000
  C   C42       1.0  0.81020  0.98494  0.00010  1.0000
  C   C43       1.0  0.81020  0.01551  0.00010  1.0000
  C   C44       1.0  0.83672  0.03088  0.00010  1.0000
  C   C45       1.0  0.03698  0.16985  0.00010  1.0000
  C   C46       1.0  0.02167  0.19635  0.00010  1.0000
  C   C47       1.0  0.99113  0.19638  0.00010  1.0000
  C   C48       1.0  0.97574  0.16987  0.00010  1.0000
  H   H9        1.0  0.17619  0.94684  0.00010  1.0000
  O   O1        1.0  0.22852  0.97004  0.00010  1.0000
  O   O2        1.0  0.22845  0.03035  0.00010  1.0000
  H   H10       1.0  0.17607  0.05344  0.00010  1.0000
  H   H11       1.0  0.05978  0.83037  0.00010  1.0000
  O   O3        1.0  0.03659  0.77803  0.00010  1.0000
  O   O4        1.0  0.97627  0.77812  0.00010  1.0000
  H   H12       1.0  0.95319  0.83050  0.00010  1.0000
  H   H13       1.0  0.83667  0.94699  0.00010  1.0000
  O   O5        1.0  0.78432  0.97006  0.00010  1.0000
  O   O6        1.0  0.78432  0.03031  0.00010  1.0000
  H   H14       1.0  0.83665  0.05350  0.00010  1.0000
  H   H15       1.0  0.05958  0.16990  0.00010  1.0000
  O   O7        1.0  0.03654  0.22223  0.00010  1.0000
  O   O8        1.0  0.97631  0.22225  0.00010  1.0000
  H   H16       1.0  0.95312  0.16994  0.00010  1.0000
  Ni  Ni1       1.0  0.00638  0.00010  0.00010  1.0000
  C   C49       1.0  0.00646  0.38366  0.93782  1.0000
  C   C50       1.0  0.00646  0.35710  0.96903  1.0000
  C   C51       1.0  0.00646  0.35716  0.03088  1.0000
  C   C52       1.0  0.00646  0.38376  0.06205  1.0000
  C   C53       1.0  0.00646  0.40958  0.02973  1.0000
  C   C54       1.0  0.00646  0.40953  0.97009  1.0000
  C   C55       1.0  0.00646  0.43856  0.95138  1.0000
  N   N9        1.0  0.00646  0.45690  0.00010  1.0000
  C   C56       1.0  0.00646  0.43865  0.04856  1.0000
  N   N10       1.0  0.00646  0.44719  0.10633  1.0000
  C   C57       1.0  0.00646  0.47603  0.12335  1.0000
  N   N11       1.0  0.00646  0.50030  0.08685  1.0000
  C   C58       1.0  0.00646  0.52460  0.12342  1.0000
  C   C59       1.0  0.00646  0.51523  0.18149  1.0000
  C   C60       1.0  0.00646  0.48545  0.18150  1.0000
  N   N12       1.0  0.00646  0.54352  0.00010  1.0000
  C   C61       1.0  0.00646  0.56180  0.04899  1.0000
  N   N13       1.0  0.00646  0.55339  0.10656  1.0000
  C   C62       1.0  0.00646  0.59085  0.03025  1.0000
  C   C63       1.0  0.00646  0.59083  0.97067  1.0000
  C   C64       1.0  0.00646  0.56177  0.95188  1.0000
  C   C65       1.0  0.00646  0.46931  0.23315  1.0000
  C   C66       1.0  0.00646  0.48483  0.28630  1.0000
  C   C67       1.0  0.00646  0.51572  0.28633  1.0000
  C   C68       1.0  0.00646  0.53134  0.23322  1.0000
  C   C69       1.0  0.00646  0.61666  0.93838  1.0000
  C   C70       1.0  0.00646  0.64326  0.96947  1.0000
  C   C71       1.0  0.00646  0.64326  0.03125  1.0000
  C   C72       1.0  0.00646  0.61670  0.06246  1.0000
  N   N14       1.0  0.00646  0.50011  0.91356  1.0000
  C   C73       1.0  0.00646  0.52438  0.87711  1.0000
  N   N15       1.0  0.00646  0.55324  0.89419  1.0000
  C   C74       1.0  0.00646  0.51498  0.81894  1.0000
  C   C75       1.0  0.00646  0.48517  0.81889  1.0000
  C   C76       1.0  0.00646  0.47580  0.87695  1.0000
  C   C77       1.0  0.00646  0.46905  0.76713  1.0000
  C   C78       1.0  0.00646  0.48465  0.71398  1.0000
  C   C79       1.0  0.00646  0.51556  0.71408  1.0000
  C   C80       1.0  0.00646  0.53113  0.76732  1.0000
  N   N16       1.0  0.00646  0.44696  0.89378  1.0000
  H   H17       1.0  0.00646  0.38394  0.89255  1.0000
  H   H18       1.0  0.00646  0.38412  0.10736  1.0000
  H   H19       1.0  0.00646  0.44667  0.23248  1.0000
  H   H20       1.0  0.00646  0.55396  0.23261  1.0000
  H   H21       1.0  0.00646  0.61633  0.89314  1.0000
  H   H22       1.0  0.00646  0.61639  0.10772  1.0000
  H   H23       1.0  0.00646  0.44641  0.76770  1.0000
  H   H24       1.0  0.00646  0.55378  0.76802  1.0000
  C   C81       1.0  0.00646  0.46948  0.66076  1.0000
  C   C82       1.0  0.00646  0.48488  0.60774  1.0000
  C   C83       1.0  0.00646  0.51545  0.60783  1.0000
  C   C84       1.0  0.00646  0.53078  0.66094  1.0000
  C   C85       1.0  0.00646  0.33045  0.93871  1.0000
  C   C86       1.0  0.00646  0.30394  0.96948  1.0000
  C   C87       1.0  0.00646  0.30399  0.03061  1.0000
  C   C88       1.0  0.00646  0.33055  0.06129  1.0000
  C   C89       1.0  0.00646  0.46961  0.33949  1.0000
  C   C90       1.0  0.00646  0.48495  0.39255  1.0000
  C   C91       1.0  0.00646  0.51551  0.39255  1.0000
  C   C92       1.0  0.00646  0.53088  0.33952  1.0000
  C   C93       1.0  0.00646  0.66985  0.93903  1.0000
  C   C94       1.0  0.00646  0.69636  0.96964  1.0000
  C   C95       1.0  0.00646  0.69638  0.03072  1.0000
  C   C96       1.0  0.00646  0.66987  0.06149  1.0000
  H   H25       1.0  0.00646  0.44685  0.66060  1.0000
  O   O9        1.0  0.00646  0.47004  0.55595  1.0000
  O   O10       1.0  0.00646  0.53035  0.55610  1.0000
  H   H26       1.0  0.00646  0.55344  0.66085  1.0000
  H   H27       1.0  0.00646  0.33037  0.89342  1.0000
  O   O11       1.0  0.00646  0.27803  0.93980  1.0000
  O   O12       1.0  0.00646  0.27812  0.06043  1.0000
  H   H28       1.0  0.00646  0.33051  0.10658  1.0000
  H   H29       1.0  0.00646  0.44699  0.33962  1.0000
  O   O13       1.0  0.00646  0.47006  0.44431  1.0000
  O   O14       1.0  0.00646  0.53031  0.44430  1.0000
  H   H30       1.0  0.00646  0.55350  0.33965  1.0000
  H   H31       1.0  0.00646  0.66990  0.89383  1.0000
  O   O15       1.0  0.00646  0.72224  0.93991  1.0000
  O   O16       1.0  0.00646  0.72225  0.06035  1.0000
  H   H32       1.0  0.00646  0.66994  0.10674  1.0000
  Ni  Ni2       1.0  0.00646  0.50021  0.00010  1.0000
  C   C97       1.0  0.47523  0.00010  0.76704  1.0000
  C   C98       1.0  0.49084  0.00010  0.71392  1.0000
  C   C99       1.0  0.52176  0.00010  0.71404  1.0000
  C   C100      1.0  0.53735  0.00010  0.76725  1.0000
  C   C101      1.0  0.52119  0.00010  0.81889  1.0000
  C   C102      1.0  0.49137  0.00010  0.81880  1.0000
  C   C103      1.0  0.48201  0.00010  0.87686  1.0000
  N   N17       1.0  0.50633  0.00010  0.91353  1.0000
  C   C104      1.0  0.53060  0.00010  0.87704  1.0000
  N   N18       1.0  0.55949  0.00010  0.89411  1.0000
  C   C105      1.0  0.56800  0.00010  0.95180  1.0000
  N   N19       1.0  0.54975  0.00010  0.00010  1.0000
  C   C106      1.0  0.56804  0.00010  0.04894  1.0000
  C   C107      1.0  0.59707  0.00010  0.03020  1.0000
  C   C108      1.0  0.59708  0.00010  0.97063  1.0000
  N   N20       1.0  0.50654  0.00010  0.08679  1.0000
  C   C109      1.0  0.53082  0.00010  0.12335  1.0000
  N   N21       1.0  0.55960  0.00010  0.10653  1.0000
  C   C110      1.0  0.52145  0.00010  0.18145  1.0000
  C   C111      1.0  0.49166  0.00010  0.18141  1.0000
  C   C112      1.0  0.48226  0.00010  0.12329  1.0000
  C   C113      1.0  0.62290  0.00010  0.93835  1.0000
  C   C114      1.0  0.64948  0.00010  0.96941  1.0000
  C   C115      1.0  0.64950  0.00010  0.03118  1.0000
  C   C116      1.0  0.62294  0.00010  0.06241  1.0000
  C   C117      1.0  0.47551  0.00010  0.23307  1.0000
  C   C118      1.0  0.49106  0.00010  0.28627  1.0000
  C   C119      1.0  0.52195  0.00010  0.28627  1.0000
  C   C120      1.0  0.53755  0.00010  0.23315  1.0000
  N   N22       1.0  0.46310  0.00010  0.99990  1.0000
  C   C121      1.0  0.44487  0.00010  0.04849  1.0000
  N   N23       1.0  0.45342  0.00010  0.10623  1.0000
  C   C122      1.0  0.41579  0.00010  0.02970  1.0000
  C   C123      1.0  0.41576  0.00010  0.97007  1.0000
  C   C124      1.0  0.44479  0.00010  0.95133  1.0000
  C   C125      1.0  0.38988  0.00010  0.93784  1.0000
  C   C126      1.0  0.36331  0.00010  0.96904  1.0000
  C   C127      1.0  0.36335  0.00010  0.03087  1.0000
  C   C128      1.0  0.38998  0.00010  0.06200  1.0000
  N   N24       1.0  0.45321  0.00010  0.89367  1.0000
  H   H33       1.0  0.45260  0.00010  0.76761  1.0000
  H   H34       1.0  0.56001  0.00010  0.76796  1.0000
  H   H35       1.0  0.62257  0.00010  0.89307  1.0000
  H   H36       1.0  0.62263  0.00010  0.10767  1.0000
  H   H37       1.0  0.45289  0.00010  0.23242  1.0000
  H   H38       1.0  0.56019  0.00010  0.23253  1.0000
  H   H39       1.0  0.39017  0.00010  0.89255  1.0000
  H   H40       1.0  0.39033  0.00010  0.10731  1.0000
  C   C129      1.0  0.33670  0.00010  0.93870  1.0000
  C   C130      1.0  0.31018  0.00010  0.96949  1.0000
  C   C131      1.0  0.31023  0.00010  0.03064  1.0000
  C   C132      1.0  0.33678  0.00010  0.06131  1.0000
  C   C133      1.0  0.47567  0.00010  0.66063  1.0000
  C   C134      1.0  0.49106  0.00010  0.60761  1.0000
  C   C135      1.0  0.52163  0.00010  0.60771  1.0000
  C   C136      1.0  0.53697  0.00010  0.66082  1.0000
  C   C137      1.0  0.67608  0.00010  0.93896  1.0000
  C   C138      1.0  0.70260  0.00010  0.96963  1.0000
  C   C139      1.0  0.70260  0.00010  0.03076  1.0000
  C   C140      1.0  0.67609  0.00010  0.06150  1.0000
  C   C141      1.0  0.47583  0.00010  0.33946  1.0000
  C   C142      1.0  0.49114  0.00010  0.39247  1.0000
  C   C143      1.0  0.52168  0.00010  0.39251  1.0000
  C   C144      1.0  0.53707  0.00010  0.33949  1.0000
  H   H41       1.0  0.33661  0.00010  0.89343  1.0000
  O   O17       1.0  0.28429  0.00010  0.93981  1.0000
  O   O18       1.0  0.28436  0.00010  0.06044  1.0000
  H   H42       1.0  0.33674  0.00010  0.10663  1.0000
  H   H43       1.0  0.45303  0.00010  0.66046  1.0000
  O   O19       1.0  0.47622  0.00010  0.55578  1.0000
  O   O20       1.0  0.53654  0.00010  0.55596  1.0000
  H   H44       1.0  0.55961  0.00010  0.66074  1.0000
  H   H45       1.0  0.67614  0.00010  0.89372  1.0000
  O   O21       1.0  0.72849  0.00010  0.93986  1.0000
  O   O22       1.0  0.72848  0.00010  0.06036  1.0000
  H   H46       1.0  0.67616  0.00010  0.10675  1.0000
  H   H47       1.0  0.45323  0.00010  0.33956  1.0000
  O   O23       1.0  0.47627  0.00010  0.44423  1.0000
  O   O24       1.0  0.53650  0.00010  0.44426  1.0000
  H   H48       1.0  0.55969  0.00010  0.33964  1.0000
  Ni  Ni3       1.0  0.50643  0.00010  0.00010  1.0000
  Zn  Zn1       1.0  0.00644  0.25016  0.00010  1.0000
  Zn  Zn2       1.0  0.75640  0.00010  0.00010  1.0000
  Zn  Zn3       1.0  0.00644  0.75016  0.00010  1.0000
  Zn  Zn4       1.0  0.25640  0.00010  0.00010  1.0000
  Cu  Cu1       1.0  0.00646  0.50020  0.50016  1.0000
  Cu  Cu2       1.0  0.50638  0.00010  0.50007  1.0000
