data_image0
_chemical_formula_structural       C7NCNCNC3NCNC11NCNC7NH8C16HO2H2O2H2O2H2O2HNiC7NCNCNC3NCNC11NCNC7NH8C16HO2H2O2H2O2H2O2HNiC7NCNCNC3NCNC11NCNC7NH8C16HO2H2O2H2O2H2O2HNiC7NCNCNC3NCNC11NCNC7NH8C16HO2H2O2H2O2H2O2HNiC7NCNCNC3NCNC11NCNC7NH8C16HO2H2O2H2O2H2O2HNiCu2Zn4Cu4
_chemical_formula_sum              "C240 N40 H80 O40 Ni5 Cu6 Zn4"
_cell_length_a       75.2123
_cell_length_b       75.2183
_cell_length_c       25.0723
_cell_angle_alpha    90.2787
_cell_angle_beta     90.279
_cell_angle_gamma    90.061

_space_group_name_H-M_alt    "P 1"
_space_group_IT_number       1

loop_
  _space_group_symop_operation_xyz
  'x, y, z'

loop_
  _atom_site_type_symbol
  _atom_site_label
  _atom_site_symmetry_multiplicity
  _atom_site_fract_x
  _atom_site_fract_y
  _atom_site_fract_z
  _atom_site_occupancy
  C   C1        1.0  0.02758  0.92957  0.00187  1.0000
  C   C2        1.0  0.01713  0.91184  0.00187  1.0000
  C   C3        1.0  0.99651  0.91181  0.00188  1.0000
  C   C4        1.0  0.98617  0.92952  0.00188  1.0000
  C   C5        1.0  0.99699  0.94676  0.00187  1.0000
  C   C6        1.0  0.01687  0.94679  0.00187  1.0000
  C   C7        1.0  0.02317  0.96617  0.00187  1.0000
  N   N1        1.0  0.00699  0.97834  0.00187  1.0000
  C   C8        1.0  0.99077  0.96612  0.00187  1.0000
  N   N2        1.0  0.97153  0.97176  0.00187  1.0000
  C   C9        1.0  0.96591  0.99097  0.00187  1.0000
  N   N3        1.0  0.97813  0.00719  0.00187  1.0000
  C   C10       1.0  0.96598  0.02335  0.00187  1.0000
  C   C11       1.0  0.94661  0.01704  0.00187  1.0000
  C   C12       1.0  0.94655  0.99719  0.00188  1.0000
  N   N4        1.0  0.00702  0.03609  0.00187  1.0000
  C   C13       1.0  0.99087  0.04823  0.00187  1.0000
  N   N5        1.0  0.97166  0.04256  0.00187  1.0000
  C   C14       1.0  0.99717  0.06761  0.00187  1.0000
  C   C15       1.0  0.01703  0.06766  0.00186  1.0000
  C   C16       1.0  0.02324  0.04831  0.00186  1.0000
  C   C17       1.0  0.92930  0.98637  0.00188  1.0000
  C   C18       1.0  0.91161  0.99667  0.00188  1.0000
  C   C19       1.0  0.91166  0.01726  0.00188  1.0000
  C   C20       1.0  0.92939  0.02773  0.00188  1.0000
  C   C21       1.0  0.02784  0.08491  0.00186  1.0000
  C   C22       1.0  0.01753  0.10261  0.00186  1.0000
  C   C23       1.0  0.99694  0.10255  0.00186  1.0000
  C   C24       1.0  0.98648  0.08481  0.00187  1.0000
  N   N6        1.0  0.03589  0.00723  0.00187  1.0000
  C   C25       1.0  0.04809  0.02345  0.00186  1.0000
  N   N7        1.0  0.04245  0.04268  0.00186  1.0000
  C   C26       1.0  0.06746  0.01724  0.00186  1.0000
  C   C27       1.0  0.06742  0.99737  0.00186  1.0000
  C   C28       1.0  0.04805  0.99106  0.00187  1.0000
  C   C29       1.0  0.08465  0.98668  0.00186  1.0000
  C   C30       1.0  0.10239  0.99713  0.00186  1.0000
  C   C31       1.0  0.10242  0.01774  0.00186  1.0000
  C   C32       1.0  0.08470  0.02806  0.00186  1.0000
  N   N8        1.0  0.04239  0.97182  0.00187  1.0000
  H   H1        1.0  0.04267  0.92981  0.00187  1.0000
  H   H2        1.0  0.97107  0.92971  0.00188  1.0000
  H   H3        1.0  0.92948  0.97128  0.00188  1.0000
  H   H4        1.0  0.92964  0.04281  0.00187  1.0000
  H   H5        1.0  0.04292  0.08474  0.00186  1.0000
  H   H6        1.0  0.97139  0.08456  0.00187  1.0000
  H   H7        1.0  0.08441  0.97158  0.00186  1.0000
  H   H8        1.0  0.08451  0.04317  0.00186  1.0000
  C   C33       1.0  0.12011  0.98707  0.00186  1.0000
  C   C34       1.0  0.13781  0.99739  0.00186  1.0000
  C   C35       1.0  0.13784  0.01777  0.00186  1.0000
  C   C36       1.0  0.12016  0.02794  0.00186  1.0000
  C   C37       1.0  0.02719  0.89410  0.00187  1.0000
  C   C38       1.0  0.01688  0.87640  0.00188  1.0000
  C   C39       1.0  0.99650  0.87637  0.00188  1.0000
  C   C40       1.0  0.98632  0.89404  0.00188  1.0000
  C   C41       1.0  0.89385  0.98647  0.00188  1.0000
  C   C42       1.0  0.87619  0.99664  0.00188  1.0000
  C   C43       1.0  0.87625  0.01702  0.00188  1.0000
  C   C44       1.0  0.89396  0.02732  0.00188  1.0000
  C   C45       1.0  0.02773  0.12037  0.00186  1.0000
  C   C46       1.0  0.01758  0.13801  0.00186  1.0000
  C   C47       1.0  0.99722  0.13796  0.00186  1.0000
  C   C48       1.0  0.98691  0.12026  0.00186  1.0000
  H   H9        1.0  0.12012  0.97198  0.00186  1.0000
  O   O1        1.0  0.15505  0.98755  0.00186  1.0000
  O   O2        1.0  0.15511  0.02776  0.00185  1.0000
  H   H10       1.0  0.12024  0.04305  0.00186  1.0000
  H   H11       1.0  0.04228  0.89409  0.00187  1.0000
  O   O3        1.0  0.02672  0.85915  0.00188  1.0000
  O   O4        1.0  0.98651  0.85909  0.00188  1.0000
  H   H12       1.0  0.97122  0.89397  0.00188  1.0000
  H   H13       1.0  0.89376  0.97139  0.00188  1.0000
  O   O5        1.0  0.85891  0.98666  0.00188  1.0000
  O   O6        1.0  0.85903  0.02683  0.00188  1.0000
  H   H14       1.0  0.89396  0.04240  0.00188  1.0000
  H   H15       1.0  0.04280  0.12045  0.00186  1.0000
  O   O7        1.0  0.02754  0.15530  0.00186  1.0000
  O   O8        1.0  0.98739  0.15518  0.00186  1.0000
  H   H16       1.0  0.97182  0.12026  0.00186  1.0000
  Ni  Ni1       1.0  0.00701  0.00721  0.00187  1.0000
  C   C49       1.0  0.00790  0.41819  0.06418  1.0000
  C   C50       1.0  0.00787  0.43590  0.03296  1.0000
  C   C51       1.0  0.00787  0.43586  0.97112  1.0000
  C   C52       1.0  0.00790  0.41812  0.93994  1.0000
  C   C53       1.0  0.00792  0.40091  0.97227  1.0000
  C   C54       1.0  0.00792  0.40094  0.03190  1.0000
  C   C55       1.0  0.00795  0.38158  0.05062  1.0000
  N   N9        1.0  0.00797  0.36936  0.00199  1.0000
  C   C56       1.0  0.00795  0.38153  0.95344  1.0000
  N   N10       1.0  0.00796  0.37584  0.89567  1.0000
  C   C57       1.0  0.00798  0.35661  0.87864  1.0000
  N   N11       1.0  0.00801  0.34042  0.91515  1.0000
  C   C58       1.0  0.00803  0.32423  0.87857  1.0000
  C   C59       1.0  0.00802  0.33047  0.82051  1.0000
  C   C60       1.0  0.00799  0.35033  0.82050  1.0000
  N   N12       1.0  0.00805  0.31161  0.00157  1.0000
  C   C61       1.0  0.00806  0.29942  0.95300  1.0000
  N   N13       1.0  0.00806  0.30503  0.89543  1.0000
  C   C62       1.0  0.00809  0.28006  0.97174  1.0000
  C   C63       1.0  0.00809  0.28007  0.03132  1.0000
  C   C64       1.0  0.00806  0.29944  0.05012  1.0000
  C   C65       1.0  0.00798  0.36109  0.76884  1.0000
  C   C66       1.0  0.00799  0.35074  0.71570  1.0000
  C   C67       1.0  0.00802  0.33015  0.71566  1.0000
  C   C68       1.0  0.00804  0.31974  0.76878  1.0000
  C   C69       1.0  0.00812  0.26285  0.06361  1.0000
  C   C70       1.0  0.00814  0.24512  0.03253  1.0000
  C   C71       1.0  0.00814  0.24512  0.97075  1.0000
  C   C72       1.0  0.00812  0.26282  0.93953  1.0000
  N   N14       1.0  0.00801  0.34056  0.08844  1.0000
  C   C73       1.0  0.00803  0.32438  0.12489  1.0000
  N   N15       1.0  0.00806  0.30513  0.10780  1.0000
  C   C74       1.0  0.00802  0.33064  0.18306  1.0000
  C   C75       1.0  0.00799  0.35052  0.18311  1.0000
  C   C76       1.0  0.00798  0.35676  0.12505  1.0000
  C   C77       1.0  0.00798  0.36126  0.23487  1.0000
  C   C78       1.0  0.00799  0.35086  0.28802  1.0000
  C   C79       1.0  0.00802  0.33025  0.28792  1.0000
  C   C80       1.0  0.00804  0.31987  0.23468  1.0000
  N   N16       1.0  0.00796  0.37598  0.10822  1.0000
  H   H17       1.0  0.00790  0.41800  0.10944  1.0000
  H   H18       1.0  0.00790  0.41789  0.89464  1.0000
  H   H19       1.0  0.00796  0.37618  0.76952  1.0000
  H   H20       1.0  0.00806  0.30465  0.76938  1.0000
  H   H21       1.0  0.00812  0.26307  0.10886  1.0000
  H   H22       1.0  0.00812  0.26303  0.89427  1.0000
  H   H23       1.0  0.00796  0.37636  0.23430  1.0000
  H   H24       1.0  0.00806  0.30477  0.23397  1.0000
  C   C81       1.0  0.00798  0.36097  0.34124  1.0000
  C   C82       1.0  0.00799  0.35071  0.39425  1.0000
  C   C83       1.0  0.00802  0.33033  0.39417  1.0000
  C   C84       1.0  0.00804  0.32010  0.34106  1.0000
  C   C85       1.0  0.00785  0.45366  0.06329  1.0000
  C   C86       1.0  0.00782  0.47133  0.03252  1.0000
  C   C87       1.0  0.00782  0.47130  0.97139  1.0000
  C   C88       1.0  0.00785  0.45360  0.94070  1.0000
  C   C89       1.0  0.00798  0.36089  0.66250  1.0000
  C   C90       1.0  0.00799  0.35066  0.60945  1.0000
  C   C91       1.0  0.00802  0.33029  0.60945  1.0000
  C   C92       1.0  0.00804  0.32004  0.66247  1.0000
  C   C93       1.0  0.00817  0.22739  0.06297  1.0000
  C   C94       1.0  0.00819  0.20972  0.03235  1.0000
  C   C95       1.0  0.00819  0.20971  0.97128  1.0000
  C   C96       1.0  0.00817  0.22738  0.94051  1.0000
  H   H25       1.0  0.00796  0.37606  0.34140  1.0000
  O   O9        1.0  0.00798  0.36060  0.44605  1.0000
  O   O10       1.0  0.00804  0.32039  0.44590  1.0000
  H   H26       1.0  0.00806  0.30500  0.34114  1.0000
  H   H27       1.0  0.00785  0.45372  0.10858  1.0000
  O   O11       1.0  0.00780  0.48861  0.06220  1.0000
  O   O12       1.0  0.00780  0.48855  0.94157  1.0000
  H   H28       1.0  0.00785  0.45363  0.89542  1.0000
  H   H29       1.0  0.00796  0.37597  0.66238  1.0000
  O   O13       1.0  0.00798  0.36059  0.55769  1.0000
  O   O14       1.0  0.00804  0.32042  0.55769  1.0000
  H   H30       1.0  0.00806  0.30496  0.66234  1.0000
  H   H31       1.0  0.00817  0.22736  0.10817  1.0000
  O   O15       1.0  0.00822  0.19247  0.06209  1.0000
  O   O16       1.0  0.00822  0.19246  0.94164  1.0000
  H   H32       1.0  0.00817  0.22733  0.89526  1.0000
  Ni  Ni2       1.0  0.00801  0.34049  0.00178  1.0000
  C   C97       1.0  0.69447  0.00617  0.23496  1.0000
  C   C98       1.0  0.68406  0.00619  0.28808  1.0000
  C   C99       1.0  0.66345  0.00622  0.28797  1.0000
  C   C100      1.0  0.65306  0.00624  0.23475  1.0000
  C   C101      1.0  0.66383  0.00622  0.18311  1.0000
  C   C102      1.0  0.68371  0.00619  0.18321  1.0000
  C   C103      1.0  0.68995  0.00618  0.12514  1.0000
  N   N17       1.0  0.67374  0.00621  0.08847  1.0000
  C   C104      1.0  0.65756  0.00623  0.12497  1.0000
  N   N18       1.0  0.63830  0.00626  0.10789  1.0000
  C   C105      1.0  0.63262  0.00627  0.05020  1.0000
  N   N19       1.0  0.64479  0.00625  0.00166  1.0000
  C   C106      1.0  0.63260  0.00627  0.95306  1.0000
  C   C107      1.0  0.61324  0.00630  0.97180  1.0000
  C   C108      1.0  0.61324  0.00630  0.03137  1.0000
  N   N20       1.0  0.67360  0.00621  0.91521  1.0000
  C   C109      1.0  0.65741  0.00623  0.87865  1.0000
  N   N21       1.0  0.63822  0.00626  0.89548  1.0000
  C   C110      1.0  0.66366  0.00622  0.82055  1.0000
  C   C111      1.0  0.68352  0.00619  0.82060  1.0000
  C   C112      1.0  0.68978  0.00618  0.87872  1.0000
  C   C113      1.0  0.59602  0.00633  0.06366  1.0000
  C   C114      1.0  0.57830  0.00635  0.03260  1.0000
  C   C115      1.0  0.57829  0.00635  0.97082  1.0000
  C   C116      1.0  0.59600  0.00633  0.93959  1.0000
  C   C117      1.0  0.69428  0.00617  0.76894  1.0000
  C   C118      1.0  0.68392  0.00619  0.71574  1.0000
  C   C119      1.0  0.66333  0.00622  0.71573  1.0000
  C   C120      1.0  0.65292  0.00624  0.76885  1.0000
  N   N22       1.0  0.70256  0.00616  0.00205  1.0000
  C   C121      1.0  0.71471  0.00614  0.95352  1.0000
  N   N23       1.0  0.70901  0.00615  0.89578  1.0000
  C   C122      1.0  0.73410  0.00611  0.97231  1.0000
  C   C123      1.0  0.73412  0.00611  0.03194  1.0000
  C   C124      1.0  0.71476  0.00614  0.05068  1.0000
  C   C125      1.0  0.75137  0.00609  0.06417  1.0000
  C   C126      1.0  0.76909  0.00606  0.03297  1.0000
  C   C127      1.0  0.76906  0.00606  0.97114  1.0000
  C   C128      1.0  0.75131  0.00609  0.94001  1.0000
  N   N24       1.0  0.70915  0.00615  0.10834  1.0000
  H   H33       1.0  0.70956  0.00615  0.23440  1.0000
  H   H34       1.0  0.63795  0.00626  0.23405  1.0000
  H   H35       1.0  0.59625  0.00633  0.10894  1.0000
  H   H36       1.0  0.59620  0.00633  0.89433  1.0000
  H   H37       1.0  0.70937  0.00615  0.76959  1.0000
  H   H38       1.0  0.63783  0.00626  0.76947  1.0000
  H   H39       1.0  0.75118  0.00609  0.10946  1.0000
  H   H40       1.0  0.75107  0.00609  0.89470  1.0000
  C   C129      1.0  0.78683  0.00603  0.06331  1.0000
  C   C130      1.0  0.80450  0.00600  0.03252  1.0000
  C   C131      1.0  0.80447  0.00600  0.97137  1.0000
  C   C132      1.0  0.78677  0.00603  0.94070  1.0000
  C   C133      1.0  0.69418  0.00617  0.34138  1.0000
  C   C134      1.0  0.68392  0.00619  0.39440  1.0000
  C   C135      1.0  0.66354  0.00622  0.39430  1.0000
  C   C136      1.0  0.65331  0.00624  0.34118  1.0000
  C   C137      1.0  0.56057  0.00638  0.06304  1.0000
  C   C138      1.0  0.54289  0.00641  0.03237  1.0000
  C   C139      1.0  0.54289  0.00641  0.97124  1.0000
  C   C140      1.0  0.56056  0.00638  0.94050  1.0000
  C   C141      1.0  0.69407  0.00617  0.66255  1.0000
  C   C142      1.0  0.68386  0.00619  0.60954  1.0000
  C   C143      1.0  0.66350  0.00622  0.60949  1.0000
  C   C144      1.0  0.65325  0.00624  0.66251  1.0000
  H   H41       1.0  0.78688  0.00603  0.10858  1.0000
  O   O17       1.0  0.82177  0.00598  0.06220  1.0000
  O   O18       1.0  0.82172  0.00598  0.94157  1.0000
  H   H42       1.0  0.78680  0.00603  0.89538  1.0000
  H   H43       1.0  0.70927  0.00615  0.34155  1.0000
  O   O19       1.0  0.69381  0.00617  0.44622  1.0000
  O   O20       1.0  0.65360  0.00624  0.44604  1.0000
  H   H44       1.0  0.63821  0.00626  0.34127  1.0000
  H   H45       1.0  0.56053  0.00638  0.10828  1.0000
  O   O21       1.0  0.52563  0.00644  0.06214  1.0000
  O   O22       1.0  0.52563  0.00644  0.94164  1.0000
  H   H46       1.0  0.56052  0.00638  0.89526  1.0000
  H   H47       1.0  0.70914  0.00615  0.66245  1.0000
  O   O23       1.0  0.69378  0.00617  0.55778  1.0000
  O   O24       1.0  0.65362  0.00624  0.55775  1.0000
  H   H48       1.0  0.63816  0.00626  0.66237  1.0000
  Ni  Ni3       1.0  0.67367  0.00621  0.00186  1.0000
  C   C145      1.0  0.00621  0.59617  0.93958  1.0000
  C   C146      1.0  0.00623  0.57847  0.97079  1.0000
  C   C147      1.0  0.00623  0.57851  0.03264  1.0000
  C   C148      1.0  0.00621  0.59624  0.06381  1.0000
  C   C149      1.0  0.00618  0.61346  0.03149  1.0000
  C   C150      1.0  0.00618  0.61342  0.97185  1.0000
  C   C151      1.0  0.00615  0.63278  0.95314  1.0000
  N   N25       1.0  0.00614  0.64500  0.00177  1.0000
  C   C152      1.0  0.00615  0.63284  0.05032  1.0000
  N   N26       1.0  0.00615  0.63853  0.10809  1.0000
  C   C153      1.0  0.00612  0.65776  0.12511  1.0000
  N   N27       1.0  0.00609  0.67394  0.08861  1.0000
  C   C154      1.0  0.00607  0.69014  0.12518  1.0000
  C   C155      1.0  0.00608  0.68389  0.18325  1.0000
  C   C156      1.0  0.00611  0.66403  0.18326  1.0000
  N   N28       1.0  0.00605  0.70275  0.00219  1.0000
  C   C157      1.0  0.00603  0.71494  0.05075  1.0000
  N   N29       1.0  0.00604  0.70933  0.10832  1.0000
  C   C158      1.0  0.00601  0.73431  0.03201  1.0000
  C   C159      1.0  0.00601  0.73429  0.97243  1.0000
  C   C160      1.0  0.00603  0.71492  0.95364  1.0000
  C   C161      1.0  0.00612  0.65327  0.23491  1.0000
  C   C162      1.0  0.00611  0.66363  0.28806  1.0000
  C   C163      1.0  0.00608  0.68422  0.28809  1.0000
  C   C164      1.0  0.00606  0.69463  0.23498  1.0000
  C   C165      1.0  0.00598  0.75151  0.94014  1.0000
  C   C166      1.0  0.00595  0.76924  0.97123  1.0000
  C   C167      1.0  0.00595  0.76925  0.03301  1.0000
  C   C168      1.0  0.00598  0.75154  0.06422  1.0000
  N   N30       1.0  0.00609  0.67381  0.91532  1.0000
  C   C169      1.0  0.00607  0.68999  0.87887  1.0000
  N   N31       1.0  0.00604  0.70923  0.89595  1.0000
  C   C170      1.0  0.00608  0.68372  0.82070  1.0000
  C   C171      1.0  0.00611  0.66385  0.82065  1.0000
  C   C172      1.0  0.00612  0.65760  0.87871  1.0000
  C   C173      1.0  0.00612  0.65310  0.76889  1.0000
  C   C174      1.0  0.00611  0.66350  0.71574  1.0000
  C   C175      1.0  0.00608  0.68411  0.71584  1.0000
  C   C176      1.0  0.00606  0.69449  0.76908  1.0000
  N   N32       1.0  0.00615  0.63838  0.89554  1.0000
  H   H49       1.0  0.00621  0.59636  0.89431  1.0000
  H   H50       1.0  0.00621  0.59648  0.10912  1.0000
  H   H51       1.0  0.00615  0.63818  0.23424  1.0000
  H   H52       1.0  0.00604  0.70971  0.23437  1.0000
  H   H53       1.0  0.00598  0.75129  0.89490  1.0000
  H   H54       1.0  0.00598  0.75133  0.10948  1.0000
  H   H55       1.0  0.00615  0.63801  0.76946  1.0000
  H   H56       1.0  0.00604  0.70959  0.76978  1.0000
  C   C177      1.0  0.00612  0.65339  0.66252  1.0000
  C   C178      1.0  0.00611  0.66366  0.60950  1.0000
  C   C179      1.0  0.00608  0.68404  0.60959  1.0000
  C   C180      1.0  0.00606  0.69426  0.66270  1.0000
  C   C181      1.0  0.00626  0.56070  0.94046  1.0000
  C   C182      1.0  0.00629  0.54303  0.97123  1.0000
  C   C183      1.0  0.00629  0.54306  0.03237  1.0000
  C   C184      1.0  0.00626  0.56077  0.06305  1.0000
  C   C185      1.0  0.00612  0.65348  0.34125  1.0000
  C   C186      1.0  0.00611  0.66370  0.39431  1.0000
  C   C187      1.0  0.00608  0.68408  0.39431  1.0000
  C   C188      1.0  0.00606  0.69432  0.34128  1.0000
  C   C189      1.0  0.00593  0.78697  0.94079  1.0000
  C   C190      1.0  0.00590  0.80464  0.97140  1.0000
  C   C191      1.0  0.00590  0.80466  0.03248  1.0000
  C   C192      1.0  0.00593  0.78699  0.06325  1.0000
  H   H57       1.0  0.00615  0.63830  0.66236  1.0000
  O   O25       1.0  0.00612  0.65376  0.55771  1.0000
  O   O26       1.0  0.00607  0.69397  0.55786  1.0000
  H   H58       1.0  0.00604  0.70937  0.66261  1.0000
  H   H59       1.0  0.00626  0.56065  0.89518  1.0000
  O   O27       1.0  0.00631  0.52576  0.94156  1.0000
  O   O28       1.0  0.00631  0.52581  0.06219  1.0000
  H   H60       1.0  0.00626  0.56074  0.10834  1.0000
  H   H61       1.0  0.00615  0.63840  0.34138  1.0000
  O   O29       1.0  0.00612  0.65378  0.44607  1.0000
  O   O30       1.0  0.00607  0.69394  0.44606  1.0000
  H   H62       1.0  0.00604  0.70941  0.34141  1.0000
  H   H63       1.0  0.00593  0.78701  0.89559  1.0000
  O   O31       1.0  0.00588  0.82190  0.94167  1.0000
  O   O32       1.0  0.00588  0.82191  0.06211  1.0000
  H   H64       1.0  0.00593  0.78703  0.10850  1.0000
  Ni  Ni4       1.0  0.00609  0.67387  0.00197  1.0000
  C   C193      1.0  0.31958  0.00826  0.76879  1.0000
  C   C194      1.0  0.32998  0.00824  0.71567  1.0000
  C   C195      1.0  0.35060  0.00821  0.71578  1.0000
  C   C196      1.0  0.36099  0.00820  0.76900  1.0000
  C   C197      1.0  0.35022  0.00821  0.82064  1.0000
  C   C198      1.0  0.33034  0.00824  0.82054  1.0000
  C   C199      1.0  0.32410  0.00825  0.87861  1.0000
  N   N33       1.0  0.34031  0.00823  0.91528  1.0000
  C   C200      1.0  0.35649  0.00821  0.87878  1.0000
  N   N34       1.0  0.37575  0.00818  0.89586  1.0000
  C   C201      1.0  0.38143  0.00817  0.95355  1.0000
  N   N35       1.0  0.36926  0.00819  0.00209  1.0000
  C   C202      1.0  0.38145  0.00817  0.05069  1.0000
  C   C203      1.0  0.40080  0.00814  0.03195  1.0000
  C   C204      1.0  0.40081  0.00814  0.97237  1.0000
  N   N36       1.0  0.34045  0.00823  0.08853  1.0000
  C   C205      1.0  0.35664  0.00821  0.12510  1.0000
  N   N37       1.0  0.37583  0.00818  0.10827  1.0000
  C   C206      1.0  0.35039  0.00821  0.18320  1.0000
  C   C207      1.0  0.33053  0.00824  0.18315  1.0000
  C   C208      1.0  0.32426  0.00825  0.12503  1.0000
  C   C209      1.0  0.41803  0.00811  0.94009  1.0000
  C   C210      1.0  0.43574  0.00809  0.97115  1.0000
  C   C211      1.0  0.43576  0.00809  0.03293  1.0000
  C   C212      1.0  0.41805  0.00811  0.06416  1.0000
  C   C213      1.0  0.31976  0.00826  0.23481  1.0000
  C   C214      1.0  0.33013  0.00824  0.28801  1.0000
  C   C215      1.0  0.35072  0.00821  0.28802  1.0000
  C   C216      1.0  0.36113  0.00820  0.23490  1.0000
  N   N38       1.0  0.31149  0.00827  0.00169  1.0000
  C   C217      1.0  0.29934  0.00829  0.05023  1.0000
  N   N39       1.0  0.30503  0.00828  0.10797  1.0000
  C   C218      1.0  0.27995  0.00832  0.03144  1.0000
  C   C219      1.0  0.27993  0.00832  0.97181  1.0000
  C   C220      1.0  0.29929  0.00829  0.95307  1.0000
  C   C221      1.0  0.26268  0.00834  0.93957  1.0000
  C   C222      1.0  0.24496  0.00837  0.97078  1.0000
  C   C223      1.0  0.24499  0.00837  0.03261  1.0000
  C   C224      1.0  0.26274  0.00834  0.06374  1.0000
  N   N40       1.0  0.30490  0.00828  0.89541  1.0000
  H   H65       1.0  0.30449  0.00828  0.76935  1.0000
  H   H66       1.0  0.37609  0.00818  0.76970  1.0000
  H   H67       1.0  0.41780  0.00811  0.89481  1.0000
  H   H68       1.0  0.41785  0.00811  0.10942  1.0000
  H   H69       1.0  0.30468  0.00828  0.23416  1.0000
  H   H70       1.0  0.37621  0.00818  0.23427  1.0000
  H   H71       1.0  0.26287  0.00834  0.89429  1.0000
  H   H72       1.0  0.26297  0.00834  0.10905  1.0000
  C   C225      1.0  0.22722  0.00840  0.94043  1.0000
  C   C226      1.0  0.20955  0.00842  0.97123  1.0000
  C   C227      1.0  0.20957  0.00842  0.03238  1.0000
  C   C228      1.0  0.22728  0.00840  0.06305  1.0000
  C   C229      1.0  0.31987  0.00826  0.66237  1.0000
  C   C230      1.0  0.33013  0.00824  0.60935  1.0000
  C   C231      1.0  0.35051  0.00821  0.60945  1.0000
  C   C232      1.0  0.36074  0.00820  0.66257  1.0000
  C   C233      1.0  0.45348  0.00806  0.94071  1.0000
  C   C234      1.0  0.47116  0.00804  0.97138  1.0000
  C   C235      1.0  0.47116  0.00804  0.03251  1.0000
  C   C236      1.0  0.45349  0.00806  0.06325  1.0000
  C   C237      1.0  0.31998  0.00826  0.34120  1.0000
  C   C238      1.0  0.33018  0.00824  0.39421  1.0000
  C   C239      1.0  0.35054  0.00821  0.39426  1.0000
  C   C240      1.0  0.36080  0.00820  0.34123  1.0000
  H   H73       1.0  0.22716  0.00840  0.89516  1.0000
  O   O33       1.0  0.19228  0.00845  0.94155  1.0000
  O   O34       1.0  0.19233  0.00845  0.06217  1.0000
  H   H74       1.0  0.22725  0.00840  0.10837  1.0000
  H   H75       1.0  0.30478  0.00828  0.66220  1.0000
  O   O35       1.0  0.32024  0.00826  0.55752  1.0000
  O   O36       1.0  0.36045  0.00820  0.55771  1.0000
  H   H76       1.0  0.37583  0.00818  0.66248  1.0000
  H   H77       1.0  0.45352  0.00806  0.89547  1.0000
  O   O37       1.0  0.48842  0.00801  0.94161  1.0000
  O   O38       1.0  0.48841  0.00801  0.06211  1.0000
  H   H78       1.0  0.45353  0.00806  0.10849  1.0000
  H   H79       1.0  0.30491  0.00828  0.34130  1.0000
  O   O39       1.0  0.32027  0.00826  0.44597  1.0000
  O   O40       1.0  0.36042  0.00820  0.44600  1.0000
  H   H80       1.0  0.37589  0.00818  0.34138  1.0000
  Ni  Ni5       1.0  0.34038  0.00823  0.00189  1.0000
  Cu  Cu1       1.0  0.00706  0.50718  0.00188  1.0000
  Cu  Cu2       1.0  0.50702  0.00722  0.00188  1.0000
  Zn  Zn1       1.0  0.00784  0.17385  0.00187  1.0000
  Zn  Zn2       1.0  0.84036  0.00637  0.00188  1.0000
  Zn  Zn3       1.0  0.00625  0.84052  0.00188  1.0000
  Zn  Zn4       1.0  0.17369  0.00805  0.00186  1.0000
  Cu  Cu3       1.0  0.00801  0.34050  0.50183  1.0000
  Cu  Cu4       1.0  0.67370  0.00621  0.50194  1.0000
  Cu  Cu5       1.0  0.00609  0.67387  0.50192  1.0000
  Cu  Cu6       1.0  0.34034  0.00823  0.50181  1.0000
