data_image0
_chemical_formula_structural       C7NCNCNC3NCNC11NCNC7NHO2H2O2H2O2H2O2HNiC7NCNCNC3NCNC11NCNC7NHO2H2O2H2O2H2O2HNiC7NCNCNC3NCNC11NCNC7NHO2H2O2H2O2H2O2HNiC7NCNCNC3NCNC11NCNC7NHO2H2O2H2O2H2O2HNiC7NCNCNC3NCNC11NCNC7NHO2H2O2H2O2H2O2HNiCu2Zn4Cu4
_chemical_formula_sum              "C160 N40 H40 O40 Ni5 Cu6 Zn4"
_cell_length_a       57.7188
_cell_length_b       57.7199
_cell_length_c       19.2397
_cell_angle_alpha    90.0024
_cell_angle_beta     90.0007
_cell_angle_gamma    90.002

_space_group_name_H-M_alt    "P 1"
_space_group_IT_number       1

loop_
  _space_group_symop_operation_xyz
  'x, y, z'

loop_
  _atom_site_type_symbol
  _atom_site_label
  _atom_site_symmetry_multiplicity
  _atom_site_fract_x
  _atom_site_fract_y
  _atom_site_fract_z
  _atom_site_occupancy
  C   C1        1.0  0.97339  0.90071  0.00010  1.0000
  C   C2        1.0  0.98695  0.87757  0.00010  1.0000
  C   C3        1.0  0.01391  0.87759  0.00010  1.0000
  C   C4        1.0  0.02744  0.90075  0.00010  1.0000
  C   C5        1.0  0.01329  0.92319  0.00010  1.0000
  C   C6        1.0  0.98751  0.92318  0.00010  1.0000
  C   C7        1.0  0.97944  0.94841  0.00010  1.0000
  N   N1        1.0  0.00010  0.96474  0.00010  1.0000
  C   C8        1.0  0.02134  0.94844  0.00010  1.0000
  N   N2        1.0  0.04604  0.95483  0.00010  1.0000
  C   C9        1.0  0.05240  0.97955  0.00010  1.0000
  N   N3        1.0  0.03606  0.00010  0.00010  1.0000
  C   C10       1.0  0.05237  0.02144  0.00010  1.0000
  C   C11       1.0  0.07761  0.01341  0.00010  1.0000
  C   C12       1.0  0.07763  0.98763  0.00010  1.0000
  N   N4        1.0  0.00010  0.03616  0.00010  1.0000
  C   C13       1.0  0.02126  0.05250  0.00010  1.0000
  N   N5        1.0  0.04597  0.04615  0.00010  1.0000
  C   C14       1.0  0.01318  0.07773  0.00010  1.0000
  C   C15       1.0  0.98740  0.07771  0.00010  1.0000
  C   C16       1.0  0.97937  0.05247  0.00010  1.0000
  C   C17       1.0  0.10011  0.97352  0.99990  1.0000
  C   C18       1.0  0.12324  0.98710  0.99990  1.0000
  C   C19       1.0  0.12321  0.01405  0.99990  1.0000
  C   C20       1.0  0.10005  0.02757  0.00010  1.0000
  C   C21       1.0  0.97325  0.10016  0.00010  1.0000
  C   C22       1.0  0.98678  0.12331  0.00010  1.0000
  C   C23       1.0  0.01373  0.12334  0.00010  1.0000
  C   C24       1.0  0.02730  0.10020  0.00010  1.0000
  N   N6        1.0  0.96464  0.00010  0.00010  1.0000
  C   C25       1.0  0.94831  0.02136  0.00010  1.0000
  N   N7        1.0  0.95466  0.04607  0.99990  1.0000
  C   C26       1.0  0.92308  0.01329  0.00010  1.0000
  C   C27       1.0  0.92309  0.98751  0.00010  1.0000
  C   C28       1.0  0.94833  0.97947  0.00010  1.0000
  C   C29       1.0  0.90064  0.97337  0.00010  1.0000
  C   C30       1.0  0.87749  0.98691  0.00010  1.0000
  C   C31       1.0  0.87747  0.01386  0.99990  1.0000
  C   C32       1.0  0.90062  0.02742  0.99990  1.0000
  N   N8        1.0  0.95473  0.95477  0.00010  1.0000
  H   H1        1.0  0.95520  0.90100  0.00010  1.0000
  O   O1        1.0  0.97575  0.85803  0.00010  1.0000
  O   O2        1.0  0.02512  0.85806  0.00010  1.0000
  H   H2        1.0  0.04563  0.90106  0.00010  1.0000
  H   H3        1.0  0.09983  0.95534  0.99990  1.0000
  O   O3        1.0  0.14279  0.97592  0.99990  1.0000
  O   O4        1.0  0.14274  0.02528  0.99990  1.0000
  H   H4        1.0  0.09973  0.04576  0.00010  1.0000
  H   H5        1.0  0.95506  0.09984  0.99990  1.0000
  O   O5        1.0  0.97556  0.14284  0.00010  1.0000
  O   O6        1.0  0.02492  0.14288  0.00010  1.0000
  H   H6        1.0  0.04549  0.09992  0.00010  1.0000
  H   H7        1.0  0.90094  0.95518  0.00010  1.0000
  O   O7        1.0  0.85795  0.97569  0.99990  1.0000
  O   O8        1.0  0.85793  0.02506  0.99990  1.0000
  H   H8        1.0  0.90091  0.04561  0.99990  1.0000
  Ni  Ni1       1.0  0.00010  0.00010  0.00010  1.0000
  C   C33       1.0  0.00010  0.43350  0.91905  1.0000
  C   C34       1.0  0.00010  0.45666  0.95968  1.0000
  C   C35       1.0  0.00010  0.45666  0.04056  1.0000
  C   C36       1.0  0.00010  0.43351  0.08120  1.0000
  C   C37       1.0  0.00010  0.41105  0.03881  1.0000
  C   C38       1.0  0.00010  0.41105  0.96147  1.0000
  C   C39       1.0  0.00010  0.38581  0.93730  1.0000
  N   N9        1.0  0.00010  0.36949  0.00010  1.0000
  C   C40       1.0  0.00010  0.38582  0.06300  1.0000
  N   N10       1.0  0.00010  0.37944  0.13712  1.0000
  C   C41       1.0  0.00010  0.35473  0.15626  1.0000
  N   N11       1.0  0.00010  0.33379  0.10728  1.0000
  C   C42       1.0  0.00010  0.31283  0.15625  1.0000
  C   C43       1.0  0.00010  0.32089  0.23195  1.0000
  C   C44       1.0  0.00010  0.34667  0.23197  1.0000
  N   N12       1.0  0.00010  0.29808  0.00010  1.0000
  C   C45       1.0  0.00010  0.28175  0.06300  1.0000
  N   N13       1.0  0.00010  0.28812  0.13712  1.0000
  C   C46       1.0  0.00010  0.25651  0.03882  1.0000
  C   C47       1.0  0.00010  0.25651  0.96148  1.0000
  C   C48       1.0  0.00010  0.28175  0.93731  1.0000
  C   C49       1.0  0.00010  0.36079  0.29936  1.0000
  C   C50       1.0  0.00010  0.34724  0.36880  1.0000
  C   C51       1.0  0.00010  0.32028  0.36876  1.0000
  C   C52       1.0  0.00010  0.30675  0.29930  1.0000
  C   C53       1.0  0.00010  0.23406  0.91908  1.0000
  C   C54       1.0  0.00010  0.21091  0.95970  1.0000
  C   C55       1.0  0.00010  0.21091  0.04057  1.0000
  C   C56       1.0  0.00010  0.23406  0.08121  1.0000
  N   N14       1.0  0.00010  0.33378  0.89304  1.0000
  C   C57       1.0  0.00010  0.31283  0.84407  1.0000
  N   N15       1.0  0.99990  0.28813  0.86319  1.0000
  C   C58       1.0  0.00010  0.32088  0.76836  1.0000
  C   C59       1.0  0.00010  0.34666  0.76835  1.0000
  C   C60       1.0  0.00010  0.35473  0.84406  1.0000
  C   C61       1.0  0.00010  0.36079  0.70097  1.0000
  C   C62       1.0  0.00010  0.34723  0.63153  1.0000
  C   C63       1.0  0.99990  0.32027  0.63156  1.0000
  C   C64       1.0  0.99990  0.30674  0.70102  1.0000
  N   N16       1.0  0.00010  0.37943  0.86319  1.0000
  H   H9        1.0  0.00010  0.43320  0.86449  1.0000
  O   O9        1.0  0.00010  0.47619  0.92606  1.0000
  O   O10       1.0  0.00010  0.47620  0.07416  1.0000
  H   H10       1.0  0.00010  0.43321  0.13577  1.0000
  H   H11       1.0  0.99990  0.37898  0.29850  1.0000
  O   O11       1.0  0.00010  0.35843  0.42743  1.0000
  O   O12       1.0  0.99990  0.30907  0.42736  1.0000
  H   H12       1.0  0.00010  0.28856  0.29838  1.0000
  H   H13       1.0  0.99990  0.23436  0.86451  1.0000
  O   O13       1.0  0.00010  0.19138  0.92608  1.0000
  O   O14       1.0  0.00010  0.19137  0.07418  1.0000
  H   H14       1.0  0.00010  0.23435  0.13578  1.0000
  H   H15       1.0  0.00010  0.37898  0.70184  1.0000
  O   O15       1.0  0.00010  0.35843  0.57291  1.0000
  O   O16       1.0  0.99990  0.30906  0.57295  1.0000
  H   H16       1.0  0.99990  0.28855  0.70194  1.0000
  Ni  Ni2       1.0  0.00010  0.33379  0.00010  1.0000
  C   C65       1.0  0.69406  0.00010  0.70092  1.0000
  C   C66       1.0  0.68051  0.00010  0.63147  1.0000
  C   C67       1.0  0.65355  0.00010  0.63146  1.0000
  C   C68       1.0  0.64001  0.00010  0.70091  1.0000
  C   C69       1.0  0.65414  0.00010  0.76828  1.0000
  C   C70       1.0  0.67992  0.00010  0.76829  1.0000
  C   C71       1.0  0.68797  0.00010  0.84400  1.0000
  N   N17       1.0  0.66702  0.00010  0.89296  1.0000
  C   C72       1.0  0.64608  0.00010  0.84399  1.0000
  N   N18       1.0  0.62137  0.00010  0.86312  1.0000
  C   C73       1.0  0.61499  0.00010  0.93725  1.0000
  N   N19       1.0  0.63132  0.00010  0.00010  1.0000
  C   C74       1.0  0.61499  0.00010  0.06295  1.0000
  C   C75       1.0  0.58976  0.00010  0.03879  1.0000
  C   C76       1.0  0.58975  0.00010  0.96144  1.0000
  N   N20       1.0  0.66702  0.00010  0.10722  1.0000
  C   C77       1.0  0.64608  0.00010  0.15620  1.0000
  N   N21       1.0  0.62137  0.00010  0.13708  1.0000
  C   C78       1.0  0.65414  0.00010  0.23191  1.0000
  C   C79       1.0  0.67992  0.00010  0.23190  1.0000
  C   C80       1.0  0.68797  0.00010  0.15619  1.0000
  C   C81       1.0  0.56729  0.00010  0.91908  1.0000
  C   C82       1.0  0.54414  0.00010  0.95975  1.0000
  C   C83       1.0  0.54415  0.00010  0.04062  1.0000
  C   C84       1.0  0.56731  0.00010  0.08122  1.0000
  C   C85       1.0  0.69405  0.00010  0.29926  1.0000
  C   C86       1.0  0.68051  0.00010  0.36871  1.0000
  C   C87       1.0  0.65356  0.00010  0.36872  1.0000
  C   C88       1.0  0.64001  0.00010  0.29928  1.0000
  N   N22       1.0  0.70273  0.00010  0.00010  1.0000
  C   C89       1.0  0.71905  0.00010  0.06294  1.0000
  N   N23       1.0  0.71268  0.00010  0.13706  1.0000
  C   C90       1.0  0.74429  0.00010  0.03879  1.0000
  C   C91       1.0  0.74429  0.00010  0.96144  1.0000
  C   C92       1.0  0.71906  0.00010  0.93726  1.0000
  C   C93       1.0  0.76675  0.00010  0.91906  1.0000
  C   C94       1.0  0.78990  0.00010  0.95972  1.0000
  C   C95       1.0  0.78989  0.00010  0.04060  1.0000
  C   C96       1.0  0.76674  0.00010  0.08121  1.0000
  N   N24       1.0  0.71268  0.00010  0.86313  1.0000
  H   H17       1.0  0.71224  0.00010  0.70182  1.0000
  O   O17       1.0  0.69172  0.00010  0.57286  1.0000
  O   O18       1.0  0.64235  0.00010  0.57284  1.0000
  H   H18       1.0  0.62182  0.00010  0.70180  1.0000
  H   H19       1.0  0.56757  0.00010  0.86451  1.0000
  O   O19       1.0  0.52460  0.00010  0.92617  1.0000
  O   O20       1.0  0.52462  0.00010  0.07427  1.0000
  H   H20       1.0  0.56762  0.00010  0.13579  1.0000
  H   H21       1.0  0.71224  0.00010  0.29837  1.0000
  O   O21       1.0  0.69172  0.00010  0.42732  1.0000
  O   O22       1.0  0.64235  0.00010  0.42734  1.0000
  H   H22       1.0  0.62182  0.00010  0.29841  1.0000
  H   H23       1.0  0.76646  0.00010  0.86449  1.0000
  O   O23       1.0  0.80944  0.00010  0.92613  1.0000
  O   O24       1.0  0.80943  0.00010  0.07423  1.0000
  H   H24       1.0  0.76643  0.00010  0.13578  1.0000
  Ni  Ni3       1.0  0.66702  0.00010  0.00010  1.0000
  C   C97       1.0  0.00010  0.56739  0.08118  1.0000
  C   C98       1.0  0.00010  0.54424  0.04055  1.0000
  C   C99       1.0  0.00010  0.54424  0.95968  1.0000
  C   C100      1.0  0.00010  0.56739  0.91903  1.0000
  C   C101      1.0  0.00010  0.58985  0.96142  1.0000
  C   C102      1.0  0.00010  0.58985  0.03877  1.0000
  C   C103      1.0  0.00010  0.61508  0.06293  1.0000
  N   N25       1.0  0.00010  0.63140  0.00010  1.0000
  C   C104      1.0  0.00010  0.61508  0.93724  1.0000
  N   N26       1.0  0.00010  0.62146  0.86311  1.0000
  C   C105      1.0  0.00010  0.64617  0.84398  1.0000
  N   N27       1.0  0.00010  0.66711  0.89296  1.0000
  C   C106      1.0  0.00010  0.68806  0.84400  1.0000
  C   C107      1.0  0.00010  0.68001  0.76829  1.0000
  C   C108      1.0  0.00010  0.65423  0.76826  1.0000
  N   N28       1.0  0.00010  0.70282  0.00010  1.0000
  C   C109      1.0  0.00010  0.71915  0.93724  1.0000
  N   N29       1.0  0.00010  0.71277  0.86312  1.0000
  C   C110      1.0  0.00010  0.74439  0.96142  1.0000
  C   C111      1.0  0.00010  0.74438  0.03877  1.0000
  C   C112      1.0  0.00010  0.71915  0.06293  1.0000
  C   C113      1.0  0.00010  0.64011  0.70087  1.0000
  C   C114      1.0  0.00010  0.65366  0.63144  1.0000
  C   C115      1.0  0.00010  0.68062  0.63148  1.0000
  C   C116      1.0  0.00010  0.69415  0.70095  1.0000
  C   C117      1.0  0.00010  0.76684  0.08117  1.0000
  C   C118      1.0  0.00010  0.78999  0.04055  1.0000
  C   C119      1.0  0.00010  0.78999  0.95968  1.0000
  C   C120      1.0  0.00010  0.76684  0.91904  1.0000
  N   N30       1.0  0.00010  0.66712  0.10720  1.0000
  C   C121      1.0  0.00010  0.68807  0.15617  1.0000
  N   N31       1.0  0.00010  0.71277  0.13705  1.0000
  C   C122      1.0  0.00010  0.68001  0.23188  1.0000
  C   C123      1.0  0.00010  0.65423  0.23189  1.0000
  C   C124      1.0  0.00010  0.64617  0.15618  1.0000
  C   C125      1.0  0.00010  0.64011  0.29927  1.0000
  C   C126      1.0  0.00010  0.65366  0.36871  1.0000
  C   C127      1.0  0.00010  0.68062  0.36869  1.0000
  C   C128      1.0  0.00010  0.69416  0.29922  1.0000
  N   N32       1.0  0.00010  0.62146  0.13705  1.0000
  H   H25       1.0  0.00010  0.56769  0.13575  1.0000
  O   O25       1.0  0.00010  0.52471  0.07417  1.0000
  O   O26       1.0  0.00010  0.52470  0.92607  1.0000
  H   H26       1.0  0.00010  0.56768  0.86446  1.0000
  H   H27       1.0  0.00010  0.62192  0.70173  1.0000
  O   O27       1.0  0.00010  0.64247  0.57281  1.0000
  O   O28       1.0  0.00010  0.69183  0.57288  1.0000
  H   H28       1.0  0.00010  0.71234  0.70186  1.0000
  H   H29       1.0  0.00010  0.76654  0.13574  1.0000
  O   O29       1.0  0.00010  0.80952  0.07417  1.0000
  O   O30       1.0  0.00010  0.80953  0.92607  1.0000
  H   H30       1.0  0.00010  0.76655  0.86447  1.0000
  H   H31       1.0  0.00010  0.62192  0.29840  1.0000
  O   O31       1.0  0.00010  0.64246  0.42733  1.0000
  O   O32       1.0  0.00010  0.69183  0.42729  1.0000
  H   H32       1.0  0.00010  0.71234  0.29831  1.0000
  Ni  Ni4       1.0  0.00010  0.66711  0.00010  1.0000
  C   C129      1.0  0.30666  0.00010  0.29948  1.0000
  C   C130      1.0  0.32020  0.00010  0.36893  1.0000
  C   C131      1.0  0.34716  0.00010  0.36894  1.0000
  C   C132      1.0  0.36071  0.00010  0.29949  1.0000
  C   C133      1.0  0.34658  0.00010  0.23212  1.0000
  C   C134      1.0  0.32079  0.00010  0.23211  1.0000
  C   C135      1.0  0.31274  0.00010  0.15640  1.0000
  N   N33       1.0  0.33369  0.00010  0.10744  1.0000
  C   C136      1.0  0.35464  0.00010  0.15641  1.0000
  N   N34       1.0  0.37935  0.00010  0.13728  1.0000
  C   C137      1.0  0.38573  0.00010  0.06315  1.0000
  N   N35       1.0  0.36940  0.00010  0.00010  1.0000
  C   C138      1.0  0.38572  0.00010  0.93746  1.0000
  C   C139      1.0  0.41096  0.00010  0.96162  1.0000
  C   C140      1.0  0.41096  0.00010  0.03896  1.0000
  N   N36       1.0  0.33369  0.00010  0.89318  1.0000
  C   C141      1.0  0.35464  0.00010  0.84420  1.0000
  N   N37       1.0  0.37935  0.00010  0.86333  1.0000
  C   C142      1.0  0.34658  0.00010  0.76849  1.0000
  C   C143      1.0  0.32080  0.00010  0.76850  1.0000
  C   C144      1.0  0.31274  0.00010  0.84421  1.0000
  C   C145      1.0  0.43343  0.00010  0.08133  1.0000
  C   C146      1.0  0.45657  0.00010  0.04066  1.0000
  C   C147      1.0  0.45656  0.00010  0.95979  1.0000
  C   C148      1.0  0.43340  0.00010  0.91919  1.0000
  C   C149      1.0  0.30666  0.00010  0.70114  1.0000
  C   C150      1.0  0.32020  0.00010  0.63169  1.0000
  C   C151      1.0  0.34716  0.00010  0.63168  1.0000
  C   C152      1.0  0.36071  0.00010  0.70112  1.0000
  N   N38       1.0  0.29798  0.00010  0.00010  1.0000
  C   C153      1.0  0.28166  0.00010  0.93746  1.0000
  N   N39       1.0  0.28804  0.00010  0.86334  1.0000
  C   C154      1.0  0.25643  0.00010  0.96161  1.0000
  C   C155      1.0  0.25642  0.00010  0.03896  1.0000
  C   C156      1.0  0.28166  0.00010  0.06314  1.0000
  C   C157      1.0  0.23396  0.00010  0.08134  1.0000
  C   C158      1.0  0.21081  0.00010  0.04067  1.0000
  C   C159      1.0  0.21082  0.00010  0.95980  1.0000
  C   C160      1.0  0.23398  0.00010  0.91919  1.0000
  N   N40       1.0  0.28803  0.00106  0.13727  1.0000
  H   H33       1.0  0.28847  0.00106  0.29858  1.0000
  O   O33       1.0  0.30899  0.00010  0.42754  1.0000
  O   O34       1.0  0.35836  0.00010  0.42756  1.0000
  H   H34       1.0  0.37890  0.00010  0.29860  1.0000
  H   H35       1.0  0.43314  0.00010  0.13589  1.0000
  O   O35       1.0  0.47612  0.00010  0.07424  1.0000
  O   O36       1.0  0.47609  0.00010  0.92614  1.0000
  H   H36       1.0  0.43310  0.00010  0.86462  1.0000
  H   H37       1.0  0.28847  0.00010  0.70203  1.0000
  O   O37       1.0  0.30900  0.00010  0.57308  1.0000
  O   O38       1.0  0.35836  0.00010  0.57307  1.0000
  H   H38       1.0  0.37890  0.00010  0.70200  1.0000
  H   H39       1.0  0.23425  0.00010  0.13590  1.0000
  O   O39       1.0  0.19127  0.00010  0.07427  1.0000
  O   O40       1.0  0.19129  0.00010  0.92617  1.0000
  H   H40       1.0  0.23428  0.00010  0.86462  1.0000
  Ni  Ni5       1.0  0.33369  0.00010  0.00010  1.0000
  Cu  Cu1       1.0  0.00010  0.50045  0.00010  1.0000
  Cu  Cu2       1.0  0.50036  0.00010  0.00010  1.0000
  Zn  Zn1       1.0  0.00010  0.16712  0.00010  1.0000
  Zn  Zn2       1.0  0.83369  0.00010  0.99990  1.0000
  Zn  Zn3       1.0  0.00010  0.83378  0.00010  1.0000
  Zn  Zn4       1.0  0.16702  0.00010  0.00010  1.0000
  Cu  Cu3       1.0  0.99990  0.33375  0.50016  1.0000
  Cu  Cu4       1.0  0.66704  0.00010  0.50009  1.0000
  Cu  Cu5       1.0  0.00010  0.66715  0.50008  1.0000
  Cu  Cu6       1.0  0.33368  0.00010  0.50031  1.0000
