data_image0
_chemical_formula_structural       C7NCNCNC3NCNC11NCNC7NH8C16HO2H2O2H2O2H2O2HNiC7NCNCNC3NCNC11NCNC7NH8C16HO2H2O2H2O2H2O2HNiC7NCNCNC3NCNC11NCNC7NH8C16HO2H2O2H2O2H2O2HNiC7NCNCNC3NCNC11NCNC7NH8C16HO2H2O2H2O2H2O2HNiC7NCNCNC3NCNC11NCNC7NH8C16HO2H2O2H2O2H2O2HNiC7NCNCNC3NCNC11NCNC7NH8C16HO2H2O2H2O2H2O2HNiZn12
_chemical_formula_sum              "C288 N48 H96 O48 Ni6 Zn12"
_cell_length_a       50.1429
_cell_length_b       50.1464
_cell_length_c       50.1443
_cell_angle_alpha    90.2776
_cell_angle_beta     90.2776
_cell_angle_gamma    89.7224

_space_group_name_H-M_alt    "P 1"
_space_group_IT_number       1

loop_
  _space_group_symop_operation_xyz
  'x, y, z'

loop_
  _atom_site_type_symbol
  _atom_site_label
  _atom_site_symmetry_multiplicity
  _atom_site_fract_x
  _atom_site_fract_y
  _atom_site_fract_z
  _atom_site_occupancy
  C   C1        1.0  0.03165  0.88429  0.50029  1.0000
  C   C2        1.0  0.01604  0.85773  0.50029  1.0000
  C   C3        1.0  0.98511  0.85779  0.50029  1.0000
  C   C4        1.0  0.96953  0.88439  0.50029  1.0000
  C   C5        1.0  0.98569  0.91021  0.50029  1.0000
  C   C6        1.0  0.01551  0.91016  0.50029  1.0000
  C   C7        1.0  0.02487  0.93920  0.50029  1.0000
  N   N1        1.0  0.00010  0.95753  0.50029  1.0000
  C   C8        1.0  0.97628  0.93928  0.50029  1.0000
  N   N2        1.0  0.94739  0.94782  0.50029  1.0000
  C   C9        1.0  0.93888  0.97666  0.50029  1.0000
  N   N3        1.0  0.95713  0.00010  0.50029  1.0000
  C   C10       1.0  0.93884  0.02523  0.50029  1.0000
  C   C11       1.0  0.90981  0.01586  0.50029  1.0000
  C   C12       1.0  0.90981  0.98608  0.50029  1.0000
  N   N4        1.0  0.00010  0.04416  0.50029  1.0000
  C   C13       1.0  0.97606  0.06244  0.50029  1.0000
  N   N5        1.0  0.94728  0.05402  0.50029  1.0000
  C   C14       1.0  0.98543  0.09148  0.50029  1.0000
  C   C15       1.0  0.01522  0.09146  0.50029  1.0000
  C   C16       1.0  0.02462  0.06240  0.50029  1.0000
  C   C17       1.0  0.88398  0.96993  0.50029  1.0000
  C   C18       1.0  0.85740  0.98546  0.50029  1.0000
  C   C19       1.0  0.85739  0.01635  0.50029  1.0000
  C   C20       1.0  0.88395  0.03197  0.50029  1.0000
  C   C21       1.0  0.03137  0.11729  0.50029  1.0000
  C   C22       1.0  0.01583  0.14389  0.50029  1.0000
  C   C23       1.0  0.98493  0.14389  0.50029  1.0000
  C   C24       1.0  0.96933  0.11733  0.50029  1.0000
  N   N6        1.0  0.04378  0.00010  0.50029  1.0000
  C   C25       1.0  0.06201  0.02501  0.50029  1.0000
  N   N7        1.0  0.05346  0.05388  0.50029  1.0000
  C   C26       1.0  0.09109  0.01561  0.50029  1.0000
  C   C27       1.0  0.09112  0.98580  0.50029  1.0000
  C   C28       1.0  0.06208  0.97643  0.50029  1.0000
  C   C29       1.0  0.11700  0.96968  0.50029  1.0000
  C   C30       1.0  0.14357  0.98528  0.50029  1.0000
  C   C31       1.0  0.14352  0.01620  0.50029  1.0000
  C   C32       1.0  0.11690  0.03176  0.50029  1.0000
  N   N8        1.0  0.05367  0.94760  0.50029  1.0000
  H   H1        1.0  0.05428  0.88457  0.50029  1.0000
  H   H2        1.0  0.94687  0.88474  0.50029  1.0000
  H   H3        1.0  0.88431  0.94730  0.50029  1.0000
  H   H4        1.0  0.88425  0.05459  0.50029  1.0000
  H   H5        1.0  0.05399  0.11696  0.50029  1.0000
  H   H6        1.0  0.94669  0.11702  0.50029  1.0000
  H   H7        1.0  0.11671  0.94704  0.50029  1.0000
  H   H8        1.0  0.11655  0.05441  0.50029  1.0000
  C   C33       1.0  0.17018  0.97011  0.50029  1.0000
  C   C34       1.0  0.19669  0.98551  0.50029  1.0000
  C   C35       1.0  0.19665  0.01608  0.50029  1.0000
  C   C36       1.0  0.17009  0.03141  0.50029  1.0000
  C   C37       1.0  0.03120  0.83108  0.50029  1.0000
  C   C38       1.0  0.01582  0.80457  0.50029  1.0000
  C   C39       1.0  0.98525  0.80462  0.50029  1.0000
  C   C40       1.0  0.96991  0.83118  0.50029  1.0000
  C   C41       1.0  0.83080  0.97024  0.50029  1.0000
  C   C42       1.0  0.80428  0.98558  0.50029  1.0000
  C   C43       1.0  0.80428  0.01614  0.50029  1.0000
  C   C44       1.0  0.83079  0.03151  0.50029  1.0000
  C   C45       1.0  0.03105  0.17048  0.50029  1.0000
  C   C46       1.0  0.01574  0.19699  0.50029  1.0000
  C   C47       1.0  0.98520  0.19701  0.50029  1.0000
  C   C48       1.0  0.96981  0.17050  0.50029  1.0000
  H   H9        1.0  0.17026  0.94748  0.50029  1.0000
  O   O1        1.0  0.22259  0.97067  0.50029  1.0000
  O   O2        1.0  0.22252  0.03098  0.50029  1.0000
  H   H10       1.0  0.17014  0.05408  0.50029  1.0000
  H   H11       1.0  0.05385  0.83100  0.50029  1.0000
  O   O3        1.0  0.03066  0.77866  0.50029  1.0000
  O   O4        1.0  0.97034  0.77875  0.50029  1.0000
  H   H12       1.0  0.94726  0.83114  0.50029  1.0000
  H   H13       1.0  0.83074  0.94762  0.50029  1.0000
  O   O5        1.0  0.77840  0.97069  0.50029  1.0000
  O   O6        1.0  0.77840  0.03094  0.50029  1.0000
  H   H14       1.0  0.83073  0.05413  0.50029  1.0000
  H   H15       1.0  0.05365  0.17054  0.50029  1.0000
  O   O7        1.0  0.03061  0.22287  0.50029  1.0000
  O   O8        1.0  0.97038  0.22288  0.50029  1.0000
  H   H16       1.0  0.94719  0.17057  0.50029  1.0000
  Ni  Ni1       1.0  0.00010  0.00010  0.50029  1.0000
  C   C49       1.0  0.50046  0.11736  0.03141  1.0000
  C   C50       1.0  0.50046  0.14392  0.01580  1.0000
  C   C51       1.0  0.50046  0.14386  0.98488  1.0000
  C   C52       1.0  0.50046  0.11726  0.96929  1.0000
  C   C53       1.0  0.50046  0.09144  0.98545  1.0000
  C   C54       1.0  0.50046  0.09149  0.01527  1.0000
  C   C55       1.0  0.50046  0.06246  0.02463  1.0000
  N   N9        1.0  0.50046  0.04412  0.00010  1.0000
  C   C56       1.0  0.50046  0.06237  0.97604  1.0000
  N   N10       1.0  0.50046  0.05383  0.94715  1.0000
  C   C57       1.0  0.50046  0.02499  0.93864  1.0000
  N   N11       1.0  0.50046  0.00010  0.95690  1.0000
  C   C58       1.0  0.50046  0.97642  0.93861  1.0000
  C   C59       1.0  0.50046  0.98579  0.90958  1.0000
  C   C60       1.0  0.50046  0.01557  0.90957  1.0000
  N   N12       1.0  0.50046  0.95750  0.00010  1.0000
  C   C61       1.0  0.50046  0.93922  0.97582  1.0000
  N   N13       1.0  0.50046  0.94763  0.94704  1.0000
  C   C62       1.0  0.50046  0.91017  0.98519  1.0000
  C   C63       1.0  0.50046  0.91019  0.01498  1.0000
  C   C64       1.0  0.50046  0.93925  0.02438  1.0000
  C   C65       1.0  0.50046  0.03172  0.88374  1.0000
  C   C66       1.0  0.50046  0.01619  0.85717  1.0000
  C   C67       1.0  0.50046  0.98530  0.85715  1.0000
  C   C68       1.0  0.50046  0.96968  0.88371  1.0000
  C   C69       1.0  0.50046  0.88436  0.03113  1.0000
  C   C70       1.0  0.50046  0.85776  0.01559  1.0000
  C   C71       1.0  0.50046  0.85776  0.98470  1.0000
  C   C72       1.0  0.50046  0.88432  0.96909  1.0000
  N   N14       1.0  0.50046  0.00010  0.04354  1.0000
  C   C73       1.0  0.50046  0.97664  0.06177  1.0000
  N   N15       1.0  0.50046  0.94778  0.05322  1.0000
  C   C74       1.0  0.50046  0.98604  0.09085  1.0000
  C   C75       1.0  0.50046  0.01585  0.09087  1.0000
  C   C76       1.0  0.50046  0.02522  0.06184  1.0000
  C   C77       1.0  0.50046  0.03197  0.11676  1.0000
  C   C78       1.0  0.50046  0.01637  0.14333  1.0000
  C   C79       1.0  0.50046  0.98546  0.14328  1.0000
  C   C80       1.0  0.50046  0.96989  0.11666  1.0000
  N   N16       1.0  0.50046  0.05405  0.05343  1.0000
  H   H17       1.0  0.50046  0.11708  0.05404  1.0000
  H   H18       1.0  0.50046  0.11691  0.94664  1.0000
  H   H19       1.0  0.50046  0.05436  0.88408  1.0000
  H   H20       1.0  0.50046  0.94706  0.88401  1.0000
  H   H21       1.0  0.50046  0.88469  0.05375  1.0000
  H   H22       1.0  0.50046  0.88463  0.94646  1.0000
  H   H23       1.0  0.50046  0.05461  0.11647  1.0000
  H   H24       1.0  0.50046  0.94724  0.11631  1.0000
  C   C81       1.0  0.50046  0.03154  0.16994  1.0000
  C   C82       1.0  0.50046  0.01614  0.19645  1.0000
  C   C83       1.0  0.50046  0.98557  0.19641  1.0000
  C   C84       1.0  0.50046  0.97024  0.16985  1.0000
  C   C85       1.0  0.50046  0.17057  0.03097  1.0000
  C   C86       1.0  0.50046  0.19708  0.01558  1.0000
  C   C87       1.0  0.50046  0.19703  0.98501  1.0000
  C   C88       1.0  0.50046  0.17047  0.96967  1.0000
  C   C89       1.0  0.50046  0.03141  0.83057  1.0000
  C   C90       1.0  0.50046  0.01607  0.80405  1.0000
  C   C91       1.0  0.50046  0.98551  0.80405  1.0000
  C   C92       1.0  0.50046  0.97014  0.83056  1.0000
  C   C93       1.0  0.50046  0.83117  0.03081  1.0000
  C   C94       1.0  0.50046  0.80466  0.01550  1.0000
  C   C95       1.0  0.50046  0.80464  0.98496  1.0000
  C   C96       1.0  0.50046  0.83115  0.96958  1.0000
  H   H25       1.0  0.50046  0.05417  0.17002  1.0000
  O   O9        1.0  0.50046  0.03098  0.22235  1.0000
  O   O10       1.0  0.50046  0.97067  0.22227  1.0000
  H   H26       1.0  0.50046  0.94758  0.16989  1.0000
  H   H27       1.0  0.50046  0.17065  0.05361  1.0000
  O   O11       1.0  0.50046  0.22299  0.03042  1.0000
  O   O12       1.0  0.50046  0.22290  0.97010  1.0000
  H   H28       1.0  0.50046  0.17051  0.94703  1.0000
  H   H29       1.0  0.50046  0.05403  0.83051  1.0000
  O   O13       1.0  0.50046  0.03096  0.77816  1.0000
  O   O14       1.0  0.50046  0.97071  0.77817  1.0000
  H   H30       1.0  0.50046  0.94752  0.83049  1.0000
  H   H31       1.0  0.50046  0.83112  0.05341  1.0000
  O   O15       1.0  0.50046  0.77878  0.03037  1.0000
  O   O16       1.0  0.50046  0.77877  0.97014  1.0000
  H   H32       1.0  0.50046  0.83108  0.94695  1.0000
  Ni  Ni2       1.0  0.50046  0.00010  0.00010  1.0000
  C   C97       1.0  0.03162  0.50088  0.11684  1.0000
  C   C98       1.0  0.01602  0.50088  0.14340  1.0000
  C   C99       1.0  0.98509  0.50088  0.14334  1.0000
  C   C100      1.0  0.96950  0.50088  0.11674  1.0000
  C   C101      1.0  0.98567  0.50088  0.09092  1.0000
  C   C102      1.0  0.01549  0.50088  0.09097  1.0000
  C   C103      1.0  0.02484  0.50088  0.06193  1.0000
  N   N17       1.0  0.00010  0.50088  0.04360  1.0000
  C   C104      1.0  0.97625  0.50088  0.06185  1.0000
  N   N18       1.0  0.94737  0.50088  0.05331  1.0000
  C   C105      1.0  0.93885  0.50088  0.02446  1.0000
  N   N19       1.0  0.95711  0.50088  0.00010  1.0000
  C   C106      1.0  0.93882  0.50088  0.97589  1.0000
  C   C107      1.0  0.90979  0.50088  0.98526  1.0000
  C   C108      1.0  0.90978  0.50088  0.01505  1.0000
  N   N20       1.0  0.00010  0.50088  0.95697  1.0000
  C   C109      1.0  0.97604  0.50088  0.93869  1.0000
  N   N21       1.0  0.94725  0.50088  0.94710  1.0000
  C   C110      1.0  0.98541  0.50088  0.90964  1.0000
  C   C111      1.0  0.01520  0.50088  0.90966  1.0000
  C   C112      1.0  0.02459  0.50088  0.93872  1.0000
  C   C113      1.0  0.88395  0.50088  0.03119  1.0000
  C   C114      1.0  0.85738  0.50088  0.01566  1.0000
  C   C115      1.0  0.85736  0.50088  0.98477  1.0000
  C   C116      1.0  0.88392  0.50088  0.96916  1.0000
  C   C117      1.0  0.03134  0.50088  0.88383  1.0000
  C   C118      1.0  0.01580  0.50088  0.85723  1.0000
  C   C119      1.0  0.98491  0.50088  0.85723  1.0000
  C   C120      1.0  0.96930  0.50088  0.88379  1.0000
  N   N22       1.0  0.04375  0.50088  0.00010  1.0000
  C   C121      1.0  0.06198  0.50088  0.97612  1.0000
  N   N23       1.0  0.05344  0.50088  0.94725  1.0000
  C   C122      1.0  0.09107  0.50088  0.98552  1.0000
  C   C123      1.0  0.09109  0.50088  0.01533  1.0000
  C   C124      1.0  0.06206  0.50088  0.02470  1.0000
  C   C125      1.0  0.11697  0.50088  0.03145  1.0000
  C   C126      1.0  0.14355  0.50088  0.01584  1.0000
  C   C127      1.0  0.14350  0.50088  0.98493  1.0000
  C   C128      1.0  0.11688  0.50088  0.96936  1.0000
  N   N24       1.0  0.05365  0.50088  0.05353  1.0000
  H   H33       1.0  0.05426  0.50088  0.11656  1.0000
  H   H34       1.0  0.94685  0.50088  0.11638  1.0000
  H   H35       1.0  0.88429  0.50088  0.05383  1.0000
  H   H36       1.0  0.88422  0.50088  0.94653  1.0000
  H   H37       1.0  0.05397  0.50088  0.88416  1.0000
  H   H38       1.0  0.94667  0.50088  0.88410  1.0000
  H   H39       1.0  0.11669  0.50088  0.05409  1.0000
  H   H40       1.0  0.11653  0.50088  0.94671  1.0000
  C   C129      1.0  0.17016  0.50088  0.03101  1.0000
  C   C130      1.0  0.19667  0.50088  0.01562  1.0000
  C   C131      1.0  0.19663  0.50088  0.98504  1.0000
  C   C132      1.0  0.17007  0.50088  0.96971  1.0000
  C   C133      1.0  0.03118  0.50088  0.17005  1.0000
  C   C134      1.0  0.01580  0.50088  0.19656  1.0000
  C   C135      1.0  0.98522  0.50088  0.19651  1.0000
  C   C136      1.0  0.96988  0.50088  0.16995  1.0000
  C   C137      1.0  0.83078  0.50088  0.03088  1.0000
  C   C138      1.0  0.80425  0.50088  0.01555  1.0000
  C   C139      1.0  0.80425  0.50088  0.98498  1.0000
  C   C140      1.0  0.83077  0.50088  0.96961  1.0000
  C   C141      1.0  0.03102  0.50088  0.83064  1.0000
  C   C142      1.0  0.01572  0.50088  0.80413  1.0000
  C   C143      1.0  0.98518  0.50088  0.80411  1.0000
  C   C144      1.0  0.96979  0.50088  0.83062  1.0000
  H   H41       1.0  0.17024  0.50088  0.05365  1.0000
  O   O17       1.0  0.22257  0.50088  0.03046  1.0000
  O   O18       1.0  0.22249  0.50088  0.97014  1.0000
  H   H42       1.0  0.17011  0.50088  0.94705  1.0000
  H   H43       1.0  0.05382  0.50088  0.17013  1.0000
  O   O19       1.0  0.03063  0.50088  0.22247  1.0000
  O   O20       1.0  0.97031  0.50088  0.22238  1.0000
  H   H44       1.0  0.94724  0.50088  0.17000  1.0000
  H   H45       1.0  0.83072  0.50088  0.05351  1.0000
  O   O21       1.0  0.77837  0.50088  0.03043  1.0000
  O   O22       1.0  0.77837  0.50088  0.97018  1.0000
  H   H46       1.0  0.83070  0.50088  0.94699  1.0000
  H   H47       1.0  0.05362  0.50088  0.83058  1.0000
  O   O23       1.0  0.03058  0.50088  0.77825  1.0000
  O   O24       1.0  0.97036  0.50088  0.77824  1.0000
  H   H48       1.0  0.94716  0.50088  0.83055  1.0000
  Ni  Ni3       1.0  0.00010  0.50088  0.00010  1.0000
  C   C145      1.0  0.53162  0.38434  0.00010  1.0000
  C   C146      1.0  0.51601  0.35778  0.00010  1.0000
  C   C147      1.0  0.48509  0.35784  0.00010  1.0000
  C   C148      1.0  0.46950  0.38445  0.00010  1.0000
  C   C149      1.0  0.48566  0.41026  0.00010  1.0000
  C   C150      1.0  0.51548  0.41022  0.00010  1.0000
  C   C151      1.0  0.52484  0.43925  0.00010  1.0000
  N   N25       1.0  0.50052  0.45758  0.00010  1.0000
  C   C152      1.0  0.47625  0.43934  0.00010  1.0000
  N   N26       1.0  0.44736  0.44787  0.00010  1.0000
  C   C153      1.0  0.43885  0.47672  0.00010  1.0000
  N   N27       1.0  0.45710  0.50099  0.00010  1.0000
  C   C154      1.0  0.43881  0.52529  0.00010  1.0000
  C   C155      1.0  0.40978  0.51592  0.00010  1.0000
  C   C156      1.0  0.40978  0.48613  0.00010  1.0000
  N   N28       1.0  0.50032  0.54421  0.00010  1.0000
  C   C157      1.0  0.47603  0.56249  0.00010  1.0000
  N   N29       1.0  0.44725  0.55408  0.00010  1.0000
  C   C158      1.0  0.48540  0.59154  0.00010  1.0000
  C   C159      1.0  0.51519  0.59152  0.00010  1.0000
  C   C160      1.0  0.52459  0.56246  0.00010  1.0000
  C   C161      1.0  0.38395  0.46999  0.00010  1.0000
  C   C162      1.0  0.35737  0.48552  0.00010  1.0000
  C   C163      1.0  0.35736  0.51641  0.00010  1.0000
  C   C164      1.0  0.38392  0.53202  0.00010  1.0000
  C   C165      1.0  0.53134  0.61735  0.00010  1.0000
  C   C166      1.0  0.51580  0.64394  0.00010  1.0000
  C   C167      1.0  0.48490  0.64395  0.00010  1.0000
  C   C168      1.0  0.46930  0.61739  0.00010  1.0000
  N   N30       1.0  0.54375  0.50079  0.00010  1.0000
  C   C169      1.0  0.56198  0.52506  0.00010  1.0000
  N   N31       1.0  0.55343  0.55393  0.00010  1.0000
  C   C170      1.0  0.59106  0.51566  0.00010  1.0000
  C   C171      1.0  0.59109  0.48585  0.00010  1.0000
  C   C172      1.0  0.56206  0.47648  0.00010  1.0000
  C   C173      1.0  0.61697  0.46974  0.00010  1.0000
  C   C174      1.0  0.64354  0.48534  0.00010  1.0000
  C   C175      1.0  0.64350  0.51625  0.00010  1.0000
  C   C176      1.0  0.61687  0.53182  0.00010  1.0000
  N   N32       1.0  0.55364  0.44765  0.00010  1.0000
  H   H49       1.0  0.55425  0.38463  0.00010  1.0000
  H   H50       1.0  0.44685  0.38480  0.00010  1.0000
  H   H51       1.0  0.38429  0.44735  0.00010  1.0000
  H   H52       1.0  0.38422  0.55465  0.00010  1.0000
  H   H53       1.0  0.55396  0.61702  0.00010  1.0000
  H   H54       1.0  0.44667  0.61708  0.00010  1.0000
  H   H55       1.0  0.61668  0.44709  0.00010  1.0000
  H   H56       1.0  0.61652  0.55447  0.00010  1.0000
  C   C177      1.0  0.67015  0.47017  0.00010  1.0000
  C   C178      1.0  0.69666  0.48556  0.00010  1.0000
  C   C179      1.0  0.69662  0.51614  0.00010  1.0000
  C   C180      1.0  0.67007  0.53147  0.00010  1.0000
  C   C181      1.0  0.53118  0.33114  0.00010  1.0000
  C   C182      1.0  0.51579  0.30463  0.00010  1.0000
  C   C183      1.0  0.48522  0.30468  0.00010  1.0000
  C   C184      1.0  0.46988  0.33123  0.00010  1.0000
  C   C185      1.0  0.33078  0.47030  0.00010  1.0000
  C   C186      1.0  0.30425  0.48563  0.00010  1.0000
  C   C187      1.0  0.30425  0.51619  0.00010  1.0000
  C   C188      1.0  0.33076  0.53156  0.00010  1.0000
  C   C189      1.0  0.53102  0.67054  0.00010  1.0000
  C   C190      1.0  0.51571  0.69704  0.00010  1.0000
  C   C191      1.0  0.48517  0.69706  0.00010  1.0000
  C   C192      1.0  0.46979  0.67055  0.00010  1.0000
  H   H57       1.0  0.67023  0.44753  0.00010  1.0000
  O   O25       1.0  0.72256  0.47072  0.00010  1.0000
  O   O26       1.0  0.72249  0.53103  0.00010  1.0000
  H   H58       1.0  0.67011  0.55413  0.00010  1.0000
  H   H59       1.0  0.55382  0.33105  0.00010  1.0000
  O   O27       1.0  0.53063  0.27872  0.00010  1.0000
  O   O28       1.0  0.47031  0.27880  0.00010  1.0000
  H   H60       1.0  0.44724  0.33119  0.00010  1.0000
  H   H61       1.0  0.33071  0.44768  0.00010  1.0000
  O   O29       1.0  0.27837  0.47075  0.00010  1.0000
  O   O30       1.0  0.27837  0.53099  0.00010  1.0000
  H   H62       1.0  0.33070  0.55419  0.00010  1.0000
  H   H63       1.0  0.55362  0.67059  0.00010  1.0000
  O   O31       1.0  0.53058  0.72292  0.00010  1.0000
  O   O32       1.0  0.47035  0.72294  0.00010  1.0000
  H   H64       1.0  0.44716  0.67063  0.00010  1.0000
  Ni  Ni4       1.0  0.50042  0.50089  0.00010  1.0000
  C   C193      1.0  0.00010  0.38429  0.46916  1.0000
  C   C194      1.0  0.00010  0.35774  0.48477  1.0000
  C   C195      1.0  0.00010  0.35779  0.51569  1.0000
  C   C196      1.0  0.00010  0.38440  0.53128  1.0000
  C   C197      1.0  0.00010  0.41022  0.51511  1.0000
  C   C198      1.0  0.00010  0.41017  0.48529  1.0000
  C   C199      1.0  0.00010  0.43920  0.47594  1.0000
  N   N33       1.0  0.00010  0.45754  0.50025  1.0000
  C   C200      1.0  0.00010  0.43929  0.52453  1.0000
  N   N34       1.0  0.00010  0.44783  0.55341  1.0000
  C   C201      1.0  0.00010  0.47667  0.56192  1.0000
  N   N35       1.0  0.00010  0.50094  0.54367  1.0000
  C   C202      1.0  0.00010  0.52524  0.56196  1.0000
  C   C203      1.0  0.00010  0.51587  0.59099  1.0000
  C   C204      1.0  0.00010  0.48608  0.59100  1.0000
  N   N36       1.0  0.00010  0.54416  0.50046  1.0000
  C   C205      1.0  0.00010  0.56244  0.52474  1.0000
  N   N37       1.0  0.00010  0.55403  0.55353  1.0000
  C   C206      1.0  0.00010  0.59149  0.51537  1.0000
  C   C207      1.0  0.00010  0.59147  0.48558  1.0000
  C   C208      1.0  0.00010  0.56241  0.47619  1.0000
  C   C209      1.0  0.00010  0.46994  0.61682  1.0000
  C   C210      1.0  0.00010  0.48547  0.64340  1.0000
  C   C211      1.0  0.00010  0.51636  0.64342  1.0000
  C   C212      1.0  0.00010  0.53197  0.61686  1.0000
  C   C213      1.0  0.00010  0.61730  0.46944  1.0000
  C   C214      1.0  0.00010  0.64390  0.48498  1.0000
  C   C215      1.0  0.00010  0.64390  0.51587  1.0000
  C   C216      1.0  0.00010  0.61734  0.53148  1.0000
  N   N38       1.0  0.00010  0.50074  0.45703  1.0000
  C   C217      1.0  0.00010  0.52501  0.43880  1.0000
  N   N39       1.0  0.00010  0.55388  0.44734  1.0000
  C   C218      1.0  0.00010  0.51562  0.40972  1.0000
  C   C219      1.0  0.00010  0.48581  0.40969  1.0000
  C   C220      1.0  0.00010  0.47643  0.43872  1.0000
  C   C221      1.0  0.00010  0.46969  0.38381  1.0000
  C   C222      1.0  0.00010  0.48529  0.35724  1.0000
  C   C223      1.0  0.00010  0.51620  0.35728  1.0000
  C   C224      1.0  0.00010  0.53177  0.38390  1.0000
  N   N40       1.0  0.00010  0.44760  0.44714  1.0000
  H   H65       1.0  0.00010  0.38458  0.44652  1.0000
  H   H66       1.0  0.00010  0.38475  0.55393  1.0000
  H   H67       1.0  0.00010  0.44730  0.61649  1.0000
  H   H68       1.0  0.00010  0.55460  0.61655  1.0000
  H   H69       1.0  0.00010  0.61697  0.44682  1.0000
  H   H70       1.0  0.00010  0.61703  0.55411  1.0000
  H   H71       1.0  0.00010  0.44705  0.38410  1.0000
  H   H72       1.0  0.00010  0.55442  0.38426  1.0000
  C   C225      1.0  0.00010  0.47012  0.33063  1.0000
  C   C226      1.0  0.00010  0.48552  0.30412  1.0000
  C   C227      1.0  0.00010  0.51609  0.30416  1.0000
  C   C228      1.0  0.00010  0.53142  0.33072  1.0000
  C   C229      1.0  0.00010  0.33109  0.46960  1.0000
  C   C230      1.0  0.00010  0.30458  0.48499  1.0000
  C   C231      1.0  0.00010  0.30463  0.51556  1.0000
  C   C232      1.0  0.00010  0.33119  0.53090  1.0000
  C   C233      1.0  0.00010  0.47025  0.67000  1.0000
  C   C234      1.0  0.00010  0.48558  0.69652  1.0000
  C   C235      1.0  0.00010  0.51615  0.69652  1.0000
  C   C236      1.0  0.00010  0.53152  0.67001  1.0000
  C   C237      1.0  0.00010  0.67049  0.46976  1.0000
  C   C238      1.0  0.00010  0.69699  0.48507  1.0000
  C   C239      1.0  0.00010  0.69702  0.51560  1.0000
  C   C240      1.0  0.00010  0.67051  0.53099  1.0000
  H   H73       1.0  0.00010  0.44748  0.33055  1.0000
  O   O33       1.0  0.00010  0.47067  0.27822  1.0000
  O   O34       1.0  0.00010  0.53099  0.27830  1.0000
  H   H74       1.0  0.00010  0.55408  0.33067  1.0000
  H   H75       1.0  0.00010  0.33100  0.44696  1.0000
  O   O35       1.0  0.00010  0.27867  0.47015  1.0000
  O   O36       1.0  0.00010  0.27876  0.53047  1.0000
  H   H76       1.0  0.00010  0.33114  0.55354  1.0000
  H   H77       1.0  0.00010  0.44763  0.67006  1.0000
  O   O37       1.0  0.00010  0.47070  0.72240  1.0000
  O   O38       1.0  0.00010  0.53095  0.72240  1.0000
  H   H78       1.0  0.00010  0.55414  0.67007  1.0000
  H   H79       1.0  0.00010  0.67054  0.44716  1.0000
  O   O39       1.0  0.00010  0.72287  0.47020  1.0000
  O   O40       1.0  0.00010  0.72289  0.53042  1.0000
  H   H80       1.0  0.00010  0.67058  0.55362  1.0000
  Ni  Ni5       1.0  0.00010  0.50084  0.50035  1.0000
  C   C241      1.0  0.46931  0.00010  0.38373  1.0000
  C   C242      1.0  0.48492  0.00010  0.35716  1.0000
  C   C243      1.0  0.51584  0.00010  0.35722  1.0000
  C   C244      1.0  0.53143  0.00010  0.38383  1.0000
  C   C245      1.0  0.51527  0.00010  0.40965  1.0000
  C   C246      1.0  0.48545  0.00010  0.40960  1.0000
  C   C247      1.0  0.47609  0.00010  0.43864  1.0000
  N   N41       1.0  0.50040  0.00010  0.45697  1.0000
  C   C248      1.0  0.52468  0.00010  0.43872  1.0000
  N   N42       1.0  0.55357  0.00010  0.44726  1.0000
  C   C249      1.0  0.56208  0.00010  0.47610  1.0000
  N   N43       1.0  0.54382  0.00010  0.50038  1.0000
  C   C250      1.0  0.56211  0.00010  0.52468  1.0000
  C   C251      1.0  0.59114  0.00010  0.51530  1.0000
  C   C252      1.0  0.59115  0.00010  0.48552  1.0000
  N   N44       1.0  0.50061  0.00010  0.54360  1.0000
  C   C253      1.0  0.52489  0.00010  0.56188  1.0000
  N   N45       1.0  0.55368  0.00010  0.55347  1.0000
  C   C254      1.0  0.51552  0.00010  0.59093  1.0000
  C   C255      1.0  0.48573  0.00010  0.59091  1.0000
  C   C256      1.0  0.47634  0.00010  0.56185  1.0000
  C   C257      1.0  0.61698  0.00010  0.46938  1.0000
  C   C258      1.0  0.64355  0.00010  0.48491  1.0000
  C   C259      1.0  0.64357  0.00010  0.51579  1.0000
  C   C260      1.0  0.61701  0.00010  0.53141  1.0000
  C   C261      1.0  0.46959  0.00010  0.61674  1.0000
  C   C262      1.0  0.48513  0.00010  0.64334  1.0000
  C   C263      1.0  0.51602  0.00010  0.64334  1.0000
  C   C264      1.0  0.53163  0.00010  0.61678  1.0000
  N   N46       1.0  0.45718  0.00010  0.50018  1.0000
  C   C265      1.0  0.43895  0.00010  0.52445  1.0000
  N   N47       1.0  0.44749  0.00010  0.55332  1.0000
  C   C266      1.0  0.40987  0.00010  0.51505  1.0000
  C   C267      1.0  0.40984  0.00010  0.48524  1.0000
  C   C268      1.0  0.43887  0.00010  0.47587  1.0000
  C   C269      1.0  0.38396  0.00010  0.46912  1.0000
  C   C270      1.0  0.35738  0.00010  0.48472  1.0000
  C   C271      1.0  0.35743  0.00010  0.51564  1.0000
  C   C272      1.0  0.38405  0.00010  0.53121  1.0000
  N   N48       1.0  0.44729  0.00010  0.44704  1.0000
  H   H81       1.0  0.44667  0.00010  0.38401  1.0000
  H   H82       1.0  0.55408  0.00010  0.38418  1.0000
  H   H83       1.0  0.61664  0.00010  0.44674  1.0000
  H   H84       1.0  0.61671  0.00010  0.55404  1.0000
  H   H85       1.0  0.44696  0.00010  0.61641  1.0000
  H   H86       1.0  0.55426  0.00010  0.61647  1.0000
  H   H87       1.0  0.38425  0.00010  0.44648  1.0000
  H   H88       1.0  0.38440  0.00010  0.55386  1.0000
  C   C273      1.0  0.33077  0.00010  0.46955  1.0000
  C   C274      1.0  0.30426  0.00010  0.48495  1.0000
  C   C275      1.0  0.30431  0.00010  0.51553  1.0000
  C   C276      1.0  0.33086  0.00010  0.53086  1.0000
  C   C277      1.0  0.46975  0.00010  0.33052  1.0000
  C   C278      1.0  0.48514  0.00010  0.30401  1.0000
  C   C279      1.0  0.51571  0.00010  0.30406  1.0000
  C   C280      1.0  0.53105  0.00010  0.33061  1.0000
  C   C281      1.0  0.67015  0.00010  0.46968  1.0000
  C   C282      1.0  0.69668  0.00010  0.48502  1.0000
  C   C283      1.0  0.69668  0.00010  0.51558  1.0000
  C   C284      1.0  0.67016  0.00010  0.53095  1.0000
  C   C285      1.0  0.46991  0.00010  0.66993  1.0000
  C   C286      1.0  0.48522  0.00010  0.69644  1.0000
  C   C287      1.0  0.51576  0.00010  0.69646  1.0000
  C   C288      1.0  0.53114  0.00010  0.66995  1.0000
  H   H89       1.0  0.33069  0.00010  0.44692  1.0000
  O   O41       1.0  0.27837  0.00010  0.47011  1.0000
  O   O42       1.0  0.27844  0.00010  0.53042  1.0000
  H   H90       1.0  0.33082  0.00010  0.55352  1.0000
  H   H91       1.0  0.44711  0.00010  0.33043  1.0000
  O   O43       1.0  0.47030  0.00010  0.27809  1.0000
  O   O44       1.0  0.53062  0.00010  0.27818  1.0000
  H   H92       1.0  0.55369  0.00010  0.33057  1.0000
  H   H93       1.0  0.67021  0.00010  0.44706  1.0000
  O   O45       1.0  0.72256  0.00010  0.47013  1.0000
  O   O46       1.0  0.72256  0.00010  0.53038  1.0000
  H   H94       1.0  0.67023  0.00010  0.55358  1.0000
  H   H95       1.0  0.44731  0.00010  0.66998  1.0000
  O   O47       1.0  0.47035  0.00010  0.72232  1.0000
  O   O48       1.0  0.53058  0.00010  0.72233  1.0000
  H   H96       1.0  0.55377  0.00010  0.67002  1.0000
  Ni  Ni6       1.0  0.50050  0.00010  0.50028  1.0000
  Zn  Zn1       1.0  0.00010  0.25080  0.50030  1.0000
  Zn  Zn2       1.0  0.75048  0.00010  0.50028  1.0000
  Zn  Zn3       1.0  0.00010  0.75080  0.50030  1.0000
  Zn  Zn4       1.0  0.25048  0.00010  0.50028  1.0000
  Zn  Zn5       1.0  0.50046  0.00010  0.25023  1.0000
  Zn  Zn6       1.0  0.00010  0.50086  0.25034  1.0000
  Zn  Zn7       1.0  0.50046  0.00010  0.75025  1.0000
  Zn  Zn8       1.0  0.00010  0.50086  0.75032  1.0000
  Zn  Zn9       1.0  0.25045  0.50088  0.00010  1.0000
  Zn  Zn10      1.0  0.50047  0.25085  0.00010  1.0000
  Zn  Zn11      1.0  0.75045  0.50088  0.00010  1.0000
  Zn  Zn12      1.0  0.50047  0.75085  0.00010  1.0000
