data_image0
_chemical_formula_structural       C7NCNCNC3NCNC11NCNC7NHO2H2O2H2O2H2O2HNiC7NCNCNC3NCNC11NCNC7NHO2H2O2H2O2H2O2HNiC7NCNCNC3NCNC11NCNC7NHO2H2O2H2O2H2O2HNiC7NCNCNC3NCNC11NCNC7NHO2H2O2H2O2H2O2HNiC7NCNCNC3NCNC11NCNC7NHO2H2O2H2O2H2O2HNiC7NCNCNC3NCNC11NCNC7NHO2H2O2H2O2H2O2HNiZn12
_chemical_formula_sum              "C192 N48 H48 O48 Ni6 Zn12"
_cell_length_a       38.4794
_cell_length_b       38.4792
_cell_length_c       38.48
_cell_angle_alpha    90.0025
_cell_angle_beta     90.0026
_cell_angle_gamma    89.9974

_space_group_name_H-M_alt    "P 1"
_space_group_IT_number       1

loop_
  _space_group_symop_operation_xyz
  'x, y, z'

loop_
  _atom_site_type_symbol
  _atom_site_label
  _atom_site_symmetry_multiplicity
  _atom_site_fract_x
  _atom_site_fract_y
  _atom_site_fract_z
  _atom_site_occupancy
  C   C1        1.0  0.95956  0.85150  0.50048  1.0000
  C   C2        1.0  0.97987  0.81677  0.50039  1.0000
  C   C3        1.0  0.02031  0.81677  0.50027  1.0000
  C   C4        1.0  0.04064  0.85149  0.50021  1.0000
  C   C5        1.0  0.01944  0.88518  0.50028  1.0000
  C   C6        1.0  0.98077  0.88518  0.50044  1.0000
  C   C7        1.0  0.96868  0.92304  0.50048  1.0000
  N   N1        1.0  0.00010  0.94752  0.50036  1.0000
  C   C8        1.0  0.03153  0.92303  0.50024  1.0000
  N   N2        1.0  0.06859  0.93260  0.50007  1.0000
  C   C9        1.0  0.07816  0.96966  0.50010  1.0000
  N   N3        1.0  0.05367  0.00108  0.50021  1.0000
  C   C10       1.0  0.07815  0.03251  0.50027  1.0000
  C   C11       1.0  0.11601  0.02043  0.50015  1.0000
  C   C12       1.0  0.11602  0.98175  0.50006  1.0000
  N   N4        1.0  0.00010  0.05465  0.50029  1.0000
  C   C13       1.0  0.03153  0.07914  0.50039  1.0000
  N   N5        1.0  0.06859  0.06957  0.50044  1.0000
  C   C14       1.0  0.01944  0.11699  0.50032  1.0000
  C   C15       1.0  0.98077  0.11699  0.50017  1.0000
  C   C16       1.0  0.96869  0.07913  0.50013  1.0000
  C   C17       1.0  0.14971  0.96057  0.50000  1.0000
  C   C18       1.0  0.18443  0.98090  0.50001  1.0000
  C   C19       1.0  0.18441  0.02134  0.50004  1.0000
  C   C20       1.0  0.14968  0.04164  0.50014  1.0000
  C   C21       1.0  0.95957  0.15067  0.50011  1.0000
  C   C22       1.0  0.97988  0.18539  0.50022  1.0000
  C   C23       1.0  0.02031  0.18540  0.50034  1.0000
  C   C24       1.0  0.04063  0.15068  0.50039  1.0000
  N   N6        1.0  0.94655  0.00109  0.50025  1.0000
  C   C25       1.0  0.92206  0.03251  0.50009  1.0000
  N   N7        1.0  0.93163  0.06957  0.49997  1.0000
  C   C26       1.0  0.88421  0.02043  0.50010  1.0000
  C   C27       1.0  0.88420  0.98176  0.50027  1.0000
  C   C28       1.0  0.92206  0.96967  0.50039  1.0000
  C   C29       1.0  0.85051  0.96057  0.50027  1.0000
  C   C30       1.0  0.81580  0.98091  0.50011  1.0000
  C   C31       1.0  0.81581  0.02134  0.50000  1.0000
  C   C32       1.0  0.85054  0.04165  0.49999  1.0000
  N   N8        1.0  0.93163  0.93260  0.50057  1.0000
  H   H1        1.0  0.93228  0.85195  0.50056  1.0000
  O   O1        1.0  0.96306  0.78747  0.50042  1.0000
  O   O2        1.0  0.03711  0.78745  0.50022  1.0000
  H   H2        1.0  0.06792  0.85194  0.50012  1.0000
  H   H3        1.0  0.14928  0.93329  0.49997  1.0000
  O   O3        1.0  0.21374  0.96411  0.50000  1.0000
  O   O4        1.0  0.21371  0.03816  0.49998  1.0000
  H   H4        1.0  0.14922  0.06892  0.50017  1.0000
  H   H5        1.0  0.93228  0.15022  0.50002  1.0000
  O   O5        1.0  0.96307  0.21470  0.50023  1.0000
  O   O6        1.0  0.03712  0.21470  0.50041  1.0000
  H   H6        1.0  0.06792  0.15024  0.50046  1.0000
  H   H7        1.0  0.85095  0.93329  0.50036  1.0000
  O   O7        1.0  0.78648  0.96411  0.50005  1.0000
  O   O8        1.0  0.78651  0.03816  0.49992  1.0000
  H   H8        1.0  0.85100  0.06893  0.49990  1.0000
  Ni  Ni1       1.0  0.00010  0.00108  0.50034  1.0000
  C   C33       1.0  0.49974  0.96056  0.14982  1.0000
  C   C34       1.0  0.49982  0.98088  0.18455  1.0000
  C   C35       1.0  0.49994  0.02131  0.18456  1.0000
  C   C36       1.0  0.50001  0.04164  0.14983  1.0000
  C   C37       1.0  0.49993  0.02044  0.11615  1.0000
  C   C38       1.0  0.49978  0.98177  0.11614  1.0000
  C   C39       1.0  0.49973  0.96969  0.07829  1.0000
  N   N9        1.0  0.49985  0.00111  0.05381  1.0000
  C   C40       1.0  0.49998  0.03253  0.07829  1.0000
  N   N10       1.0  0.50014  0.06960  0.06873  1.0000
  C   C41       1.0  0.50012  0.07916  0.03167  1.0000
  N   N11       1.0  0.50000  0.05467  0.00010  1.0000
  C   C42       1.0  0.49994  0.07916  0.96882  1.0000
  C   C43       1.0  0.50006  0.11701  0.98090  1.0000
  C   C44       1.0  0.50015  0.11702  0.01957  1.0000
  N   N12       1.0  0.49992  0.00111  0.94668  1.0000
  C   C45       1.0  0.49982  0.03253  0.92219  1.0000
  N   N13       1.0  0.49977  0.06959  0.93175  1.0000
  C   C46       1.0  0.49989  0.02044  0.88434  1.0000
  C   C47       1.0  0.50004  0.98177  0.88434  1.0000
  C   C48       1.0  0.50008  0.96969  0.92219  1.0000
  C   C49       1.0  0.50021  0.15072  0.04075  1.0000
  C   C50       1.0  0.50021  0.18543  0.02042  1.0000
  C   C51       1.0  0.50018  0.18541  0.97999  1.0000
  C   C52       1.0  0.50008  0.15068  0.95969  1.0000
  C   C53       1.0  0.50010  0.96057  0.85066  1.0000
  C   C54       1.0  0.49999  0.98088  0.81594  1.0000
  C   C55       1.0  0.49987  0.02131  0.81593  1.0000
  C   C56       1.0  0.49983  0.04164  0.85065  1.0000
  N   N14       1.0  0.49996  0.94755  0.00010  1.0000
  C   C57       1.0  0.50012  0.92307  0.96882  1.0000
  N   N15       1.0  0.50025  0.93263  0.93176  1.0000
  C   C58       1.0  0.50011  0.88521  0.98089  1.0000
  C   C59       1.0  0.49994  0.88520  0.01957  1.0000
  C   C60       1.0  0.49983  0.92306  0.03166  1.0000
  C   C61       1.0  0.49994  0.85152  0.04075  1.0000
  C   C62       1.0  0.50010  0.81680  0.02042  1.0000
  C   C63       1.0  0.50021  0.81681  0.97998  1.0000
  C   C64       1.0  0.50022  0.85154  0.95968  1.0000
  N   N16       1.0  0.49965  0.93263  0.06872  1.0000
  H   H9        1.0  0.49965  0.93328  0.14937  1.0000
  O   O9        1.0  0.49979  0.96406  0.21386  1.0000
  O   O10       1.0  0.49999  0.03811  0.21387  1.0000
  H   H10       1.0  0.50010  0.06892  0.14939  1.0000
  H   H11       1.0  0.50024  0.15029  0.06804  1.0000
  O   O11       1.0  0.50022  0.21475  0.03721  1.0000
  O   O12       1.0  0.50024  0.21471  0.96316  1.0000
  H   H12       1.0  0.50004  0.15022  0.93240  1.0000
  H   H13       1.0  0.50019  0.93328  0.85111  1.0000
  O   O13       1.0  0.49998  0.96407  0.78663  1.0000
  O   O14       1.0  0.49980  0.03812  0.78663  1.0000
  H   H14       1.0  0.49975  0.06892  0.85109  1.0000
  H   H15       1.0  0.49985  0.85195  0.06804  1.0000
  O   O15       1.0  0.50016  0.78748  0.03722  1.0000
  O   O16       1.0  0.50029  0.78751  0.96317  1.0000
  H   H16       1.0  0.50032  0.85200  0.93240  1.0000
  Ni  Ni2       1.0  0.49987  0.00111  0.00010  1.0000
  C   C65       1.0  0.95956  0.50145  0.14982  1.0000
  C   C66       1.0  0.97987  0.50137  0.18455  1.0000
  C   C67       1.0  0.02031  0.50124  0.18456  1.0000
  C   C68       1.0  0.04064  0.50118  0.14983  1.0000
  C   C69       1.0  0.01944  0.50126  0.11615  1.0000
  C   C70       1.0  0.98077  0.50141  0.11614  1.0000
  C   C71       1.0  0.96868  0.50145  0.07829  1.0000
  N   N17       1.0  0.00010  0.50133  0.05381  1.0000
  C   C72       1.0  0.03153  0.50121  0.07829  1.0000
  N   N18       1.0  0.06859  0.50105  0.06873  1.0000
  C   C73       1.0  0.07816  0.50107  0.03167  1.0000
  N   N19       1.0  0.05367  0.50119  0.00010  1.0000
  C   C74       1.0  0.07815  0.50124  0.96882  1.0000
  C   C75       1.0  0.11601  0.50113  0.98090  1.0000
  C   C76       1.0  0.11602  0.50103  0.01957  1.0000
  N   N20       1.0  0.00010  0.50126  0.94668  1.0000
  C   C77       1.0  0.03153  0.50137  0.92219  1.0000
  N   N21       1.0  0.06859  0.50142  0.93175  1.0000
  C   C78       1.0  0.01944  0.50130  0.88434  1.0000
  C   C79       1.0  0.98077  0.50115  0.88434  1.0000
  C   C80       1.0  0.96869  0.50111  0.92219  1.0000
  C   C81       1.0  0.14971  0.50098  0.04075  1.0000
  C   C82       1.0  0.18443  0.50098  0.02042  1.0000
  C   C83       1.0  0.18441  0.50101  0.97999  1.0000
  C   C84       1.0  0.14968  0.50111  0.95969  1.0000
  C   C85       1.0  0.95957  0.50109  0.85066  1.0000
  C   C86       1.0  0.97988  0.50119  0.81594  1.0000
  C   C87       1.0  0.02031  0.50131  0.81593  1.0000
  C   C88       1.0  0.04063  0.50136  0.85065  1.0000
  N   N22       1.0  0.94655  0.50123  0.00010  1.0000
  C   C89       1.0  0.92206  0.50106  0.96882  1.0000
  N   N23       1.0  0.93163  0.50094  0.93176  1.0000
  C   C90       1.0  0.88421  0.50107  0.98089  1.0000
  C   C91       1.0  0.88420  0.50125  0.01957  1.0000
  C   C92       1.0  0.92206  0.50136  0.03166  1.0000
  C   C93       1.0  0.85051  0.50124  0.04075  1.0000
  C   C94       1.0  0.81580  0.50108  0.02042  1.0000
  C   C95       1.0  0.81581  0.50097  0.97998  1.0000
  C   C96       1.0  0.85054  0.50096  0.95968  1.0000
  N   N24       1.0  0.93163  0.50154  0.06872  1.0000
  H   H17       1.0  0.93228  0.50153  0.14937  1.0000
  O   O17       1.0  0.96306  0.50140  0.21386  1.0000
  O   O18       1.0  0.03711  0.50119  0.21387  1.0000
  H   H18       1.0  0.06792  0.50109  0.14939  1.0000
  H   H19       1.0  0.14928  0.50094  0.06804  1.0000
  O   O19       1.0  0.21374  0.50097  0.03721  1.0000
  O   O20       1.0  0.21371  0.50095  0.96317  1.0000
  H   H20       1.0  0.14922  0.50115  0.93240  1.0000
  H   H21       1.0  0.93228  0.50099  0.85111  1.0000
  O   O21       1.0  0.96307  0.50120  0.78663  1.0000
  O   O22       1.0  0.03712  0.50139  0.78663  1.0000
  H   H22       1.0  0.06792  0.50143  0.85109  1.0000
  H   H23       1.0  0.85095  0.50133  0.06804  1.0000
  O   O23       1.0  0.78648  0.50103  0.03722  1.0000
  O   O24       1.0  0.78651  0.50089  0.96317  1.0000
  H   H24       1.0  0.85100  0.50087  0.93240  1.0000
  Ni  Ni3       1.0  0.00010  0.50131  0.00010  1.0000
  C   C97       1.0  0.45955  0.35152  0.00010  1.0000
  C   C98       1.0  0.47986  0.31679  0.00010  1.0000
  C   C99       1.0  0.52030  0.31678  0.00010  1.0000
  C   C100      1.0  0.54062  0.35151  0.00010  1.0000
  C   C101      1.0  0.51943  0.38519  0.00010  1.0000
  C   C102      1.0  0.48075  0.38520  0.00010  1.0000
  C   C103      1.0  0.46867  0.42305  0.00010  1.0000
  N   N25       1.0  0.50009  0.44753  0.00010  1.0000
  C   C104      1.0  0.53152  0.42305  0.00010  1.0000
  N   N26       1.0  0.56858  0.43261  0.00010  1.0000
  C   C105      1.0  0.57815  0.46967  0.00010  1.0000
  N   N27       1.0  0.55366  0.50110  0.00010  1.0000
  C   C106      1.0  0.57814  0.53252  0.00010  1.0000
  C   C107      1.0  0.61599  0.52044  0.00010  1.0000
  C   C108      1.0  0.61601  0.48177  0.00010  1.0000
  N   N28       1.0  0.50010  0.55466  0.00010  1.0000
  C   C109      1.0  0.53152  0.57915  0.00010  1.0000
  N   N29       1.0  0.56858  0.56959  0.00010  1.0000
  C   C110      1.0  0.51943  0.61701  0.00010  1.0000
  C   C111      1.0  0.48075  0.61701  0.00010  1.0000
  C   C112      1.0  0.46867  0.57915  0.00010  1.0000
  C   C113      1.0  0.64970  0.46059  0.00010  1.0000
  C   C114      1.0  0.68442  0.48092  0.00010  1.0000
  C   C115      1.0  0.68440  0.52136  0.00010  1.0000
  C   C116      1.0  0.64967  0.54166  0.00010  1.0000
  C   C117      1.0  0.45955  0.65069  0.00010  1.0000
  C   C118      1.0  0.47986  0.68541  0.00010  1.0000
  C   C119      1.0  0.52030  0.68541  0.00010  1.0000
  C   C120      1.0  0.54062  0.65069  0.00010  1.0000
  N   N30       1.0  0.44654  0.50110  0.00010  1.0000
  C   C121      1.0  0.42205  0.53253  0.00010  1.0000
  N   N31       1.0  0.43161  0.56959  0.99990  1.0000
  C   C122      1.0  0.38420  0.52045  0.00010  1.0000
  C   C123      1.0  0.38419  0.48178  0.00010  1.0000
  C   C124      1.0  0.42205  0.46968  0.00010  1.0000
  C   C125      1.0  0.35050  0.46059  0.00010  1.0000
  C   C126      1.0  0.31578  0.48092  0.00010  1.0000
  C   C127      1.0  0.31580  0.52136  0.00010  1.0000
  C   C128      1.0  0.35053  0.54166  0.99990  1.0000
  N   N32       1.0  0.43161  0.43262  0.00010  1.0000
  H   H25       1.0  0.43226  0.35197  0.00010  1.0000
  O   O25       1.0  0.46305  0.28748  0.00010  1.0000
  O   O26       1.0  0.53710  0.28747  0.00010  1.0000
  H   H26       1.0  0.56791  0.35195  0.00010  1.0000
  H   H27       1.0  0.64927  0.43330  0.99990  1.0000
  O   O27       1.0  0.71373  0.46413  0.00010  1.0000
  O   O28       1.0  0.71370  0.53818  0.99990  1.0000
  H   H28       1.0  0.64921  0.56894  0.00010  1.0000
  H   H29       1.0  0.43227  0.65024  0.00010  1.0000
  O   O29       1.0  0.46305  0.71471  0.00010  1.0000
  O   O30       1.0  0.53710  0.71472  0.00010  1.0000
  H   H30       1.0  0.56790  0.65025  0.00010  1.0000
  H   H31       1.0  0.35094  0.43330  0.00010  1.0000
  O   O31       1.0  0.28647  0.46412  0.00010  1.0000
  O   O32       1.0  0.28649  0.53818  0.99990  1.0000
  H   H32       1.0  0.35098  0.56895  0.99990  1.0000
  Ni  Ni4       1.0  0.50009  0.50109  0.00010  1.0000
  C   C129      1.0  0.99990  0.46055  0.64983  1.0000
  C   C130      1.0  0.99990  0.48086  0.68456  1.0000
  C   C131      1.0  0.99990  0.52130  0.68456  1.0000
  C   C132      1.0  0.00010  0.54162  0.64984  1.0000
  C   C133      1.0  0.99990  0.52043  0.61615  1.0000
  C   C134      1.0  0.99990  0.48175  0.61615  1.0000
  C   C135      1.0  0.99990  0.46967  0.57829  1.0000
  N   N33       1.0  0.99990  0.50109  0.55381  1.0000
  C   C136      1.0  0.00010  0.53252  0.57830  1.0000
  N   N34       1.0  0.00010  0.56958  0.56873  1.0000
  C   C137      1.0  0.00010  0.57915  0.53167  1.0000
  N   N35       1.0  0.00010  0.55466  0.50025  1.0000
  C   C138      1.0  0.99990  0.57914  0.46882  1.0000
  C   C139      1.0  0.00010  0.61699  0.48090  1.0000
  C   C140      1.0  0.00010  0.61700  0.51958  1.0000
  N   N36       1.0  0.99990  0.50109  0.44669  1.0000
  C   C141      1.0  0.99990  0.53252  0.42219  1.0000
  N   N37       1.0  0.99990  0.56958  0.43176  1.0000
  C   C142      1.0  0.99990  0.52043  0.38434  1.0000
  C   C143      1.0  0.00010  0.48175  0.38434  1.0000
  C   C144      1.0  0.00010  0.46967  0.42220  1.0000
  C   C145      1.0  0.00010  0.65070  0.54076  1.0000
  C   C146      1.0  0.00010  0.68542  0.52042  1.0000
  C   C147      1.0  0.00010  0.68540  0.47999  1.0000
  C   C148      1.0  0.00010  0.65066  0.45969  1.0000
  C   C149      1.0  0.00010  0.46055  0.35066  1.0000
  C   C150      1.0  0.00010  0.48086  0.31594  1.0000
  C   C151      1.0  0.99990  0.52130  0.31594  1.0000
  C   C152      1.0  0.99990  0.54162  0.35066  1.0000
  N   N38       1.0  0.99990  0.44753  0.50024  1.0000
  C   C153      1.0  0.00010  0.42305  0.46882  1.0000
  N   N39       1.0  0.00010  0.43261  0.43176  1.0000
  C   C154      1.0  0.00010  0.38520  0.48090  1.0000
  C   C155      1.0  0.99990  0.38519  0.51957  1.0000
  C   C156      1.0  0.99990  0.42305  0.53166  1.0000
  C   C157      1.0  0.99990  0.35150  0.54076  1.0000
  C   C158      1.0  0.00010  0.31678  0.52042  1.0000
  C   C159      1.0  0.00010  0.31679  0.47999  1.0000
  C   C160      1.0  0.00010  0.35152  0.45968  1.0000
  N   N40       1.0  0.99990  0.43261  0.56872  1.0000
  H   H33       1.0  0.99990  0.43326  0.64938  1.0000
  O   O33       1.0  0.99990  0.46405  0.71386  1.0000
  O   O34       1.0  0.00010  0.53810  0.71387  1.0000
  H   H34       1.0  0.00010  0.56890  0.64939  1.0000
  H   H35       1.0  0.00010  0.65027  0.56804  1.0000
  O   O35       1.0  0.00010  0.71473  0.53722  1.0000
  O   O36       1.0  0.00010  0.71470  0.46317  1.0000
  H   H36       1.0  0.00010  0.65021  0.43241  1.0000
  H   H37       1.0  0.00010  0.43327  0.35111  1.0000
  O   O37       1.0  0.00010  0.46405  0.28664  1.0000
  O   O38       1.0  0.99990  0.53810  0.28663  1.0000
  H   H38       1.0  0.99990  0.56890  0.35109  1.0000
  H   H39       1.0  0.99990  0.35194  0.56804  1.0000
  O   O39       1.0  0.00010  0.28747  0.53722  1.0000
  O   O40       1.0  0.00010  0.28749  0.46317  1.0000
  H   H40       1.0  0.00010  0.35198  0.43240  1.0000
  Ni  Ni5       1.0  0.99990  0.50109  0.50025  1.0000
  C   C161      1.0  0.45955  0.00144  0.64983  1.0000
  C   C162      1.0  0.47986  0.00136  0.68456  1.0000
  C   C163      1.0  0.52030  0.00124  0.68456  1.0000
  C   C164      1.0  0.54062  0.00117  0.64984  1.0000
  C   C165      1.0  0.51943  0.00125  0.61615  1.0000
  C   C166      1.0  0.48075  0.00140  0.61615  1.0000
  C   C167      1.0  0.46867  0.00145  0.57829  1.0000
  N   N41       1.0  0.50009  0.00133  0.55381  1.0000
  C   C168      1.0  0.53152  0.00120  0.57830  1.0000
  N   N42       1.0  0.56858  0.00104  0.56873  1.0000
  C   C169      1.0  0.57815  0.00106  0.53167  1.0000
  N   N43       1.0  0.55366  0.00118  0.50025  1.0000
  C   C170      1.0  0.57814  0.00124  0.46882  1.0000
  C   C171      1.0  0.61599  0.00112  0.48090  1.0000
  C   C172      1.0  0.61601  0.00103  0.51958  1.0000
  N   N44       1.0  0.50010  0.00125  0.44669  1.0000
  C   C173      1.0  0.53152  0.00136  0.42219  1.0000
  N   N45       1.0  0.56858  0.00141  0.43176  1.0000
  C   C174      1.0  0.51943  0.00129  0.38434  1.0000
  C   C175      1.0  0.48075  0.00114  0.38434  1.0000
  C   C176      1.0  0.46867  0.00110  0.42220  1.0000
  C   C177      1.0  0.64970  0.00010  0.54076  1.0000
  C   C178      1.0  0.68442  0.00010  0.52043  1.0000
  C   C179      1.0  0.68440  0.00100  0.47999  1.0000
  C   C180      1.0  0.64967  0.00110  0.45969  1.0000
  C   C181      1.0  0.45955  0.00108  0.35066  1.0000
  C   C182      1.0  0.47986  0.00119  0.31594  1.0000
  C   C183      1.0  0.52030  0.00131  0.31594  1.0000
  C   C184      1.0  0.54062  0.00135  0.35066  1.0000
  N   N46       1.0  0.44654  0.00122  0.50024  1.0000
  C   C185      1.0  0.42205  0.00106  0.46882  1.0000
  N   N47       1.0  0.43161  0.00010  0.43176  1.0000
  C   C186      1.0  0.38420  0.00107  0.48090  1.0000
  C   C187      1.0  0.38419  0.00124  0.51957  1.0000
  C   C188      1.0  0.42205  0.00135  0.53166  1.0000
  C   C189      1.0  0.35050  0.00124  0.54076  1.0000
  C   C190      1.0  0.31578  0.00107  0.52042  1.0000
  C   C191      1.0  0.31580  0.00010  0.47999  1.0000
  C   C192      1.0  0.35053  0.00010  0.45968  1.0000
  N   N48       1.0  0.43161  0.00153  0.56872  1.0000
  H   H41       1.0  0.43226  0.00153  0.64938  1.0000
  O   O41       1.0  0.46305  0.00139  0.71386  1.0000
  O   O42       1.0  0.53710  0.00119  0.71387  1.0000
  H   H42       1.0  0.56791  0.00108  0.64939  1.0000
  H   H43       1.0  0.64927  0.00010  0.56804  1.0000
  O   O43       1.0  0.71373  0.00010  0.53722  1.0000
  O   O44       1.0  0.71370  0.00010  0.46317  1.0000
  H   H44       1.0  0.64921  0.00114  0.43241  1.0000
  H   H45       1.0  0.43227  0.00010  0.35111  1.0000
  O   O45       1.0  0.46305  0.00120  0.28664  1.0000
  O   O46       1.0  0.53710  0.00138  0.28663  1.0000
  H   H46       1.0  0.56790  0.00143  0.35109  1.0000
  H   H47       1.0  0.35094  0.00133  0.56804  1.0000
  O   O47       1.0  0.28647  0.00102  0.53722  1.0000
  O   O48       1.0  0.28649  0.00010  0.46317  1.0000
  H   H48       1.0  0.35098  0.00010  0.43240  1.0000
  Ni  Ni6       1.0  0.50009  0.00130  0.50025  1.0000
  Zn  Zn1       1.0  0.00010  0.25109  0.50026  1.0000
  Zn  Zn2       1.0  0.75011  0.00104  0.50009  1.0000
  Zn  Zn3       1.0  0.00010  0.75109  0.50026  1.0000
  Zn  Zn4       1.0  0.25010  0.00104  0.50009  1.0000
  Zn  Zn5       1.0  0.49998  0.00119  0.25025  1.0000
  Zn  Zn6       1.0  0.99990  0.50119  0.25025  1.0000
  Zn  Zn7       1.0  0.49998  0.00119  0.75025  1.0000
  Zn  Zn8       1.0  0.00010  0.50118  0.75025  1.0000
  Zn  Zn9       1.0  0.25011  0.50105  0.00010  1.0000
  Zn  Zn10      1.0  0.50015  0.25110  0.00010  1.0000
  Zn  Zn11      1.0  0.75011  0.50106  0.00010  1.0000
  Zn  Zn12      1.0  0.50015  0.75111  0.00010  1.0000
