data_image0
_chemical_formula_structural       C6O6C6O6C6O6C6O6C6O6C6O6C6O6C6O6Fe8C6HO2HO2C6HO2HO2C6HO2HO2C6HO2HO2Cu4C6O2HO2HCuC6O2HO2HCuC6O2HO2HCuC6O2HO2HCuC6O2HO2HCuC6O2HO2HCuC6O2HO2HCuC6O2HO2HCuC6O2HO2HCuC6O2HO2HCuC6O2HO2HCuC6O2HO2HCuC6O2HO2HCuC6O2HO2HCuC6O2HO2HCuC6O2HO2HCu
_chemical_formula_sum              "C168 O128 Fe8 H40 Cu20"
_cell_length_a       39.1404
_cell_length_b       34.2421
_cell_length_c       39.0256
_cell_angle_alpha    90
_cell_angle_beta     90
_cell_angle_gamma    89.9987

_space_group_name_H-M_alt    "P 1"
_space_group_IT_number       1

loop_
  _space_group_symop_operation_xyz
  'x, y, z'

loop_
  _atom_site_type_symbol
  _atom_site_label
  _atom_site_symmetry_multiplicity
  _atom_site_fract_x
  _atom_site_fract_y
  _atom_site_fract_z
  _atom_site_occupancy
  C   C1        1.0  0.24048  0.27998  0.12597  1.0000
  C   C2        1.0  0.26113  0.24660  0.12596  1.0000
  C   C3        1.0  0.27153  0.22998  0.09490  1.0000
  C   C4        1.0  0.26128  0.24673  0.06383  1.0000
  C   C5        1.0  0.24063  0.28012  0.06383  1.0000
  C   C6        1.0  0.23023  0.29674  0.09490  1.0000
  O   O1        1.0  0.23111  0.29495  0.15393  1.0000
  O   O2        1.0  0.27035  0.23152  0.15392  1.0000
  O   O3        1.0  0.29012  0.19993  0.09489  1.0000
  O   O4        1.0  0.27065  0.23177  0.03587  1.0000
  O   O5        1.0  0.23141  0.29520  0.03587  1.0000
  O   O6        1.0  0.21164  0.32679  0.09490  1.0000
  C   C7        1.0  0.73894  0.77790  0.12597  1.0000
  C   C8        1.0  0.75959  0.74452  0.12596  1.0000
  C   C9        1.0  0.76984  0.72777  0.09490  1.0000
  C   C10       1.0  0.75944  0.74440  0.06383  1.0000
  C   C11       1.0  0.73879  0.77778  0.06383  1.0000
  C   C12       1.0  0.72854  0.79453  0.09490  1.0000
  O   O7        1.0  0.72971  0.79297  0.15393  1.0000
  O   O8        1.0  0.76895  0.72955  0.15392  1.0000
  O   O9        1.0  0.78843  0.69772  0.09490  1.0000
  O   O10       1.0  0.76867  0.72933  0.03587  1.0000
  O   O11       1.0  0.72943  0.79276  0.03587  1.0000
  O   O12       1.0  0.70995  0.82458  0.09490  1.0000
  C   C13       1.0  0.23888  0.74660  0.37404  1.0000
  C   C14       1.0  0.25953  0.77998  0.37403  1.0000
  C   C15       1.0  0.26978  0.79673  0.40510  1.0000
  C   C16       1.0  0.25938  0.78011  0.43617  1.0000
  C   C17       1.0  0.23873  0.74673  0.43617  1.0000
  C   C18       1.0  0.22848  0.72997  0.40510  1.0000
  O   O13       1.0  0.22966  0.73151  0.34607  1.0000
  O   O14       1.0  0.26890  0.79494  0.34607  1.0000
  O   O15       1.0  0.28837  0.82678  0.40510  1.0000
  O   O16       1.0  0.26860  0.79519  0.46413  1.0000
  O   O17       1.0  0.22936  0.73176  0.46413  1.0000
  O   O18       1.0  0.20989  0.69993  0.40510  1.0000
  C   C19       1.0  0.74041  0.24452  0.37404  1.0000
  C   C20       1.0  0.76106  0.27790  0.37403  1.0000
  C   C21       1.0  0.77146  0.29454  0.40510  1.0000
  C   C22       1.0  0.76120  0.27779  0.43617  1.0000
  C   C23       1.0  0.74055  0.24441  0.43617  1.0000
  C   C24       1.0  0.73015  0.22777  0.40510  1.0000
  O   O19       1.0  0.73105  0.22955  0.34608  1.0000
  O   O20       1.0  0.77029  0.29298  0.34607  1.0000
  O   O21       1.0  0.79004  0.32458  0.40510  1.0000
  O   O22       1.0  0.77056  0.29276  0.46413  1.0000
  O   O23       1.0  0.73133  0.22933  0.46413  1.0000
  O   O24       1.0  0.71157  0.19773  0.40510  1.0000
  C   C25       1.0  0.76984  0.72777  0.90510  1.0000
  C   C26       1.0  0.75944  0.74440  0.93617  1.0000
  C   C27       1.0  0.73879  0.77779  0.93617  1.0000
  C   C28       1.0  0.72854  0.79454  0.90510  1.0000
  C   C29       1.0  0.73894  0.77790  0.87403  1.0000
  C   C30       1.0  0.75959  0.74452  0.87403  1.0000
  O   O25       1.0  0.78843  0.69773  0.90510  1.0000
  O   O26       1.0  0.76867  0.72933  0.96413  1.0000
  O   O27       1.0  0.72943  0.79276  0.96413  1.0000
  O   O28       1.0  0.70995  0.82458  0.90510  1.0000
  O   O29       1.0  0.72971  0.79297  0.84607  1.0000
  O   O30       1.0  0.76895  0.72955  0.84607  1.0000
  C   C31       1.0  0.27153  0.22998  0.90510  1.0000
  C   C32       1.0  0.26128  0.24674  0.93617  1.0000
  C   C33       1.0  0.24063  0.28012  0.93617  1.0000
  C   C34       1.0  0.23023  0.29675  0.90510  1.0000
  C   C35       1.0  0.24047  0.27999  0.87403  1.0000
  C   C36       1.0  0.26112  0.24661  0.87404  1.0000
  O   O31       1.0  0.29011  0.19994  0.90510  1.0000
  O   O32       1.0  0.27064  0.23177  0.96413  1.0000
  O   O33       1.0  0.23141  0.29520  0.96413  1.0000
  O   O34       1.0  0.21164  0.32679  0.90510  1.0000
  O   O35       1.0  0.23111  0.29495  0.84607  1.0000
  O   O36       1.0  0.27035  0.23152  0.84608  1.0000
  C   C37       1.0  0.77145  0.29454  0.59490  1.0000
  C   C38       1.0  0.76120  0.27779  0.56383  1.0000
  C   C39       1.0  0.74055  0.24441  0.56383  1.0000
  C   C40       1.0  0.73015  0.22777  0.59490  1.0000
  C   C41       1.0  0.74041  0.24452  0.62596  1.0000
  C   C42       1.0  0.76106  0.27790  0.62597  1.0000
  O   O37       1.0  0.79004  0.32458  0.59490  1.0000
  O   O38       1.0  0.77056  0.29276  0.53587  1.0000
  O   O39       1.0  0.73132  0.22933  0.53587  1.0000
  O   O40       1.0  0.71157  0.19773  0.59490  1.0000
  O   O41       1.0  0.73105  0.22955  0.65393  1.0000
  O   O42       1.0  0.77028  0.29298  0.65393  1.0000
  C   C43       1.0  0.26978  0.79674  0.59490  1.0000
  C   C44       1.0  0.25938  0.78011  0.56383  1.0000
  C   C45       1.0  0.23873  0.74673  0.56383  1.0000
  C   C46       1.0  0.22848  0.72997  0.59490  1.0000
  C   C47       1.0  0.23889  0.74660  0.62597  1.0000
  C   C48       1.0  0.25954  0.77998  0.62597  1.0000
  O   O43       1.0  0.28837  0.82678  0.59490  1.0000
  O   O44       1.0  0.26860  0.79519  0.53587  1.0000
  O   O45       1.0  0.22936  0.73177  0.53587  1.0000
  O   O46       1.0  0.20990  0.69993  0.59490  1.0000
  O   O47       1.0  0.22966  0.73152  0.65393  1.0000
  O   O48       1.0  0.26890  0.79494  0.65393  1.0000
  Fe  Fe1       1.0  0.40465  0.01263  0.24998  1.0000
  Fe  Fe2       1.0  0.59534  0.01179  0.25001  1.0000
  Fe  Fe3       1.0  0.59534  0.01179  0.74998  1.0000
  Fe  Fe4       1.0  0.40465  0.01263  0.75002  1.0000
  Fe  Fe5       1.0  0.90465  0.51179  0.24999  1.0000
  Fe  Fe6       1.0  0.09535  0.51264  0.25002  1.0000
  Fe  Fe7       1.0  0.09535  0.51263  0.74998  1.0000
  Fe  Fe8       1.0  0.90465  0.51179  0.75001  1.0000
  C   C49       1.0  0.50014  0.05309  0.25000  1.0000
  C   C50       1.0  0.46909  0.03279  0.24999  1.0000
  C   C51       1.0  0.46895  0.99190  0.24999  1.0000
  C   C52       1.0  0.49986  0.97132  0.25000  1.0000
  C   C53       1.0  0.53091  0.99163  0.25001  1.0000
  C   C54       1.0  0.53104  0.03251  0.25001  1.0000
  H   H1        1.0  0.50024  0.08376  0.25000  1.0000
  O   O49       1.0  0.44127  0.05131  0.24998  1.0000
  O   O50       1.0  0.44101  0.97363  0.24998  1.0000
  H   H2        1.0  0.49976  0.94066  0.25000  1.0000
  O   O51       1.0  0.55872  0.97311  0.25001  1.0000
  O   O52       1.0  0.55898  0.05079  0.25001  1.0000
  C   C55       1.0  0.50013  0.05309  0.75000  1.0000
  C   C56       1.0  0.46909  0.03278  0.75001  1.0000
  C   C57       1.0  0.46895  0.99190  0.75001  1.0000
  C   C58       1.0  0.49986  0.97132  0.75000  1.0000
  C   C59       1.0  0.53091  0.99163  0.74999  1.0000
  C   C60       1.0  0.53104  0.03251  0.74999  1.0000
  H   H3        1.0  0.50024  0.08376  0.75000  1.0000
  O   O53       1.0  0.44127  0.05130  0.75001  1.0000
  O   O54       1.0  0.44101  0.97362  0.75001  1.0000
  H   H4        1.0  0.49976  0.94066  0.75000  1.0000
  O   O55       1.0  0.55873  0.97311  0.74999  1.0000
  O   O56       1.0  0.55898  0.05079  0.74999  1.0000
  C   C61       1.0  0.99990  0.55309  0.25000  1.0000
  C   C62       1.0  0.03091  0.53279  0.25001  1.0000
  C   C63       1.0  0.03105  0.49190  0.25001  1.0000
  C   C64       1.0  0.00010  0.47132  0.25000  1.0000
  C   C65       1.0  0.96909  0.49163  0.24999  1.0000
  C   C66       1.0  0.96895  0.53251  0.24999  1.0000
  H   H5        1.0  0.99990  0.58376  0.25000  1.0000
  O   O57       1.0  0.05872  0.55131  0.25002  1.0000
  O   O58       1.0  0.05899  0.47363  0.25002  1.0000
  H   H6        1.0  0.00010  0.44066  0.25000  1.0000
  O   O59       1.0  0.94128  0.47311  0.24999  1.0000
  O   O60       1.0  0.94101  0.55079  0.24999  1.0000
  C   C67       1.0  0.99990  0.55309  0.75000  1.0000
  C   C68       1.0  0.96895  0.53251  0.75001  1.0000
  C   C69       1.0  0.96909  0.49163  0.75001  1.0000
  C   C70       1.0  0.00010  0.47132  0.75000  1.0000
  C   C71       1.0  0.03105  0.49190  0.74999  1.0000
  C   C72       1.0  0.03091  0.53279  0.74999  1.0000
  H   H7        1.0  0.99990  0.58376  0.75000  1.0000
  O   O61       1.0  0.94101  0.55079  0.75001  1.0000
  O   O62       1.0  0.94128  0.47311  0.75001  1.0000
  H   H8        1.0  0.00010  0.44066  0.75000  1.0000
  O   O63       1.0  0.05899  0.47363  0.74998  1.0000
  O   O64       1.0  0.05872  0.55131  0.74998  1.0000
  Cu  Cu1       1.0  0.25103  0.26349  0.99990  1.0000
  Cu  Cu2       1.0  0.74905  0.76104  0.99990  1.0000
  Cu  Cu3       1.0  0.24898  0.76348  0.50000  1.0000
  Cu  Cu4       1.0  0.75094  0.26105  0.50000  1.0000
  C   C73       1.0  0.36013  0.07464  0.23131  1.0000
  C   C74       1.0  0.37976  0.06395  0.19846  1.0000
  C   C75       1.0  0.37269  0.08619  0.16493  1.0000
  C   C76       1.0  0.34597  0.11918  0.16417  1.0000
  C   C77       1.0  0.32626  0.12994  0.19710  1.0000
  C   C78       1.0  0.33340  0.10762  0.23061  1.0000
  O   O65       1.0  0.36706  0.05282  0.26421  1.0000
  O   O66       1.0  0.40596  0.03161  0.19915  1.0000
  H   H9        1.0  0.38725  0.07822  0.14065  1.0000
  O   O67       1.0  0.33912  0.14095  0.13117  1.0000
  O   O68       1.0  0.29997  0.16232  0.19657  1.0000
  H   H10       1.0  0.31886  0.11554  0.25492  1.0000
  Cu  Cu5       1.0  0.29973  0.18404  0.14374  1.0000
  C   C79       1.0  0.62032  0.96046  0.19857  1.0000
  C   C80       1.0  0.63994  0.94978  0.23144  1.0000
  C   C81       1.0  0.66668  0.91685  0.23084  1.0000
  C   C82       1.0  0.67388  0.89450  0.19738  1.0000
  C   C83       1.0  0.65422  0.90517  0.16439  1.0000
  C   C84       1.0  0.62747  0.93814  0.16509  1.0000
  O   O69       1.0  0.59407  0.99277  0.19916  1.0000
  O   O70       1.0  0.63292  0.97166  0.26427  1.0000
  H   H11       1.0  0.68117  0.90900  0.25520  1.0000
  O   O71       1.0  0.70018  0.86216  0.19691  1.0000
  O   O72       1.0  0.66114  0.88335  0.13141  1.0000
  H   H12       1.0  0.61295  0.94604  0.14075  1.0000
  Cu  Cu6       1.0  0.70059  0.84031  0.14418  1.0000
  C   C85       1.0  0.37931  0.96153  0.30143  1.0000
  C   C86       1.0  0.35962  0.95104  0.26856  1.0000
  C   C87       1.0  0.33263  0.91837  0.26915  1.0000
  C   C88       1.0  0.32525  0.89610  0.30262  1.0000
  C   C89       1.0  0.34498  0.90659  0.33561  1.0000
  C   C90       1.0  0.37197  0.93930  0.33492  1.0000
  O   O73       1.0  0.40579  0.99359  0.30084  1.0000
  O   O74       1.0  0.36681  0.97284  0.23572  1.0000
  H   H13       1.0  0.31809  0.91066  0.24479  1.0000
  O   O75       1.0  0.29871  0.86402  0.30308  1.0000
  O   O76       1.0  0.33788  0.88485  0.36860  1.0000
  H   H14       1.0  0.38654  0.94706  0.35926  1.0000
  Cu  Cu7       1.0  0.29812  0.84219  0.35582  1.0000
  C   C91       1.0  0.64031  0.07338  0.26868  1.0000
  C   C92       1.0  0.62062  0.06287  0.30154  1.0000
  C   C93       1.0  0.62786  0.08503  0.33507  1.0000
  C   C94       1.0  0.65483  0.11776  0.33583  1.0000
  C   C95       1.0  0.67461  0.12833  0.30289  1.0000
  C   C96       1.0  0.66729  0.10609  0.26939  1.0000
  O   O77       1.0  0.63320  0.05164  0.23578  1.0000
  O   O78       1.0  0.59417  0.03079  0.30085  1.0000
  H   H15       1.0  0.61325  0.07719  0.35936  1.0000
  O   O79       1.0  0.66186  0.13944  0.36883  1.0000
  O   O80       1.0  0.70114  0.16045  0.30342  1.0000
  H   H16       1.0  0.68187  0.11388  0.24507  1.0000
  Cu  Cu8       1.0  0.70157  0.18215  0.35626  1.0000
  C   C97       1.0  0.62032  0.96046  0.80143  1.0000
  C   C98       1.0  0.63994  0.94978  0.76856  1.0000
  C   C99       1.0  0.66669  0.91685  0.76916  1.0000
  C   C100      1.0  0.67388  0.89450  0.80262  1.0000
  C   C101      1.0  0.65422  0.90517  0.83561  1.0000
  C   C102      1.0  0.62747  0.93814  0.83491  1.0000
  O   O81       1.0  0.59407  0.99277  0.80084  1.0000
  O   O82       1.0  0.63292  0.97166  0.73573  1.0000
  H   H17       1.0  0.68118  0.90900  0.74480  1.0000
  O   O83       1.0  0.70018  0.86216  0.80309  1.0000
  O   O84       1.0  0.66114  0.88335  0.86859  1.0000
  H   H18       1.0  0.61295  0.94604  0.85925  1.0000
  Cu  Cu9       1.0  0.70059  0.84031  0.85582  1.0000
  C   C103      1.0  0.36012  0.07464  0.76869  1.0000
  C   C104      1.0  0.37976  0.06394  0.80154  1.0000
  C   C105      1.0  0.37269  0.08619  0.83507  1.0000
  C   C106      1.0  0.34597  0.11918  0.83583  1.0000
  C   C107      1.0  0.32626  0.12994  0.80289  1.0000
  C   C108      1.0  0.33340  0.10762  0.76939  1.0000
  O   O85       1.0  0.36706  0.05282  0.73579  1.0000
  O   O86       1.0  0.40596  0.03161  0.80085  1.0000
  H   H19       1.0  0.38725  0.07822  0.85935  1.0000
  O   O87       1.0  0.33912  0.14095  0.86883  1.0000
  O   O88       1.0  0.29997  0.16232  0.80343  1.0000
  H   H20       1.0  0.31886  0.11554  0.74508  1.0000
  Cu  Cu10      1.0  0.29972  0.18404  0.85626  1.0000
  C   C109      1.0  0.64031  0.07338  0.73132  1.0000
  C   C110      1.0  0.62062  0.06287  0.69846  1.0000
  C   C111      1.0  0.62786  0.08503  0.66493  1.0000
  C   C112      1.0  0.65483  0.11776  0.66417  1.0000
  C   C113      1.0  0.67461  0.12833  0.69711  1.0000
  C   C114      1.0  0.66728  0.10609  0.73061  1.0000
  O   O89       1.0  0.63320  0.05164  0.76421  1.0000
  O   O90       1.0  0.59417  0.03079  0.69915  1.0000
  H   H21       1.0  0.61325  0.07719  0.64064  1.0000
  O   O91       1.0  0.66186  0.13944  0.63117  1.0000
  O   O92       1.0  0.70114  0.16045  0.69658  1.0000
  H   H22       1.0  0.68187  0.11388  0.75493  1.0000
  Cu  Cu11      1.0  0.70157  0.18215  0.64374  1.0000
  C   C115      1.0  0.36075  0.94993  0.73165  1.0000
  C   C116      1.0  0.37828  0.96271  0.69818  1.0000
  C   C117      1.0  0.36994  0.94169  0.66434  1.0000
  C   C118      1.0  0.34405  0.90785  0.66388  1.0000
  C   C119      1.0  0.32644  0.89500  0.69743  1.0000
  C   C120      1.0  0.33485  0.91610  0.73125  1.0000
  O   O93       1.0  0.36893  0.97055  0.76485  1.0000
  O   O94       1.0  0.40368  0.99588  0.69858  1.0000
  H   H23       1.0  0.38296  0.95120  0.63960  1.0000
  O   O95       1.0  0.33594  0.88729  0.63057  1.0000
  O   O96       1.0  0.30097  0.86178  0.69720  1.0000
  H   H24       1.0  0.32186  0.90664  0.75602  1.0000
  Cu  Cu12      1.0  0.29837  0.84235  0.64375  1.0000
  C   C121      1.0  0.85968  0.57338  0.23132  1.0000
  C   C122      1.0  0.87938  0.56286  0.19846  1.0000
  C   C123      1.0  0.87213  0.58502  0.16493  1.0000
  C   C124      1.0  0.84517  0.61775  0.16417  1.0000
  C   C125      1.0  0.82539  0.62833  0.19711  1.0000
  C   C126      1.0  0.83271  0.60609  0.23061  1.0000
  O   O97       1.0  0.86679  0.55163  0.26422  1.0000
  O   O98       1.0  0.90583  0.53079  0.19915  1.0000
  H   H25       1.0  0.88675  0.57719  0.14064  1.0000
  O   O99       1.0  0.83813  0.63944  0.13117  1.0000
  O   O100      1.0  0.79885  0.66045  0.19658  1.0000
  H   H26       1.0  0.81812  0.61388  0.25493  1.0000
  Cu  Cu13      1.0  0.79842  0.68215  0.14374  1.0000
  C   C127      1.0  0.12070  0.46154  0.19857  1.0000
  C   C128      1.0  0.14038  0.45105  0.23144  1.0000
  C   C129      1.0  0.16738  0.41838  0.23085  1.0000
  C   C130      1.0  0.17475  0.39611  0.19738  1.0000
  C   C131      1.0  0.15503  0.40660  0.16439  1.0000
  C   C132      1.0  0.12803  0.43931  0.16508  1.0000
  O   O101      1.0  0.09421  0.49360  0.19916  1.0000
  O   O102      1.0  0.13319  0.47285  0.26428  1.0000
  H   H27       1.0  0.18192  0.41066  0.25521  1.0000
  O   O103      1.0  0.20130  0.36403  0.19692  1.0000
  O   O104      1.0  0.16213  0.38486  0.13140  1.0000
  H   H28       1.0  0.11346  0.44707  0.14074  1.0000
  Cu  Cu14      1.0  0.20189  0.34220  0.14418  1.0000
  C   C133      1.0  0.87968  0.46045  0.30143  1.0000
  C   C134      1.0  0.86006  0.44978  0.26856  1.0000
  C   C135      1.0  0.83331  0.41684  0.26916  1.0000
  C   C136      1.0  0.82611  0.39449  0.30262  1.0000
  C   C137      1.0  0.84577  0.40517  0.33561  1.0000
  C   C138      1.0  0.87252  0.43814  0.33492  1.0000
  O   O105      1.0  0.90592  0.49277  0.30084  1.0000
  O   O106      1.0  0.86708  0.47166  0.23573  1.0000
  H   H29       1.0  0.81882  0.40900  0.24480  1.0000
  O   O107      1.0  0.79981  0.36216  0.30309  1.0000
  O   O108      1.0  0.83885  0.38335  0.36860  1.0000
  H   H30       1.0  0.88704  0.44603  0.35925  1.0000
  Cu  Cu15      1.0  0.79941  0.34031  0.35582  1.0000
  C   C139      1.0  0.13988  0.57464  0.26869  1.0000
  C   C140      1.0  0.12025  0.56395  0.30154  1.0000
  C   C141      1.0  0.12731  0.58619  0.33507  1.0000
  C   C142      1.0  0.15403  0.61918  0.33583  1.0000
  C   C143      1.0  0.17374  0.62994  0.30290  1.0000
  C   C144      1.0  0.16660  0.60762  0.26939  1.0000
  O   O109      1.0  0.13294  0.55282  0.23579  1.0000
  O   O110      1.0  0.09404  0.53161  0.30085  1.0000
  H   H31       1.0  0.11275  0.57822  0.35936  1.0000
  O   O111      1.0  0.16089  0.64095  0.36883  1.0000
  O   O112      1.0  0.20003  0.66231  0.30343  1.0000
  H   H32       1.0  0.18114  0.61554  0.24508  1.0000
  Cu  Cu16      1.0  0.20028  0.68404  0.35626  1.0000
  C   C145      1.0  0.12069  0.46154  0.80143  1.0000
  C   C146      1.0  0.14038  0.45105  0.76856  1.0000
  C   C147      1.0  0.16738  0.41837  0.76915  1.0000
  C   C148      1.0  0.17475  0.39611  0.80262  1.0000
  C   C149      1.0  0.15503  0.40660  0.83561  1.0000
  C   C150      1.0  0.12803  0.43931  0.83492  1.0000
  O   O113      1.0  0.09421  0.49360  0.80084  1.0000
  O   O114      1.0  0.13319  0.47284  0.73572  1.0000
  H   H33       1.0  0.18192  0.41066  0.74479  1.0000
  O   O115      1.0  0.20130  0.36403  0.80308  1.0000
  O   O116      1.0  0.16212  0.38486  0.86860  1.0000
  H   H34       1.0  0.11346  0.44707  0.85926  1.0000
  Cu  Cu17      1.0  0.20189  0.34220  0.85582  1.0000
  C   C151      1.0  0.85968  0.57338  0.76868  1.0000
  C   C152      1.0  0.87938  0.56286  0.80154  1.0000
  C   C153      1.0  0.87213  0.58502  0.83507  1.0000
  C   C154      1.0  0.84517  0.61775  0.83583  1.0000
  C   C155      1.0  0.82539  0.62833  0.80289  1.0000
  C   C156      1.0  0.83271  0.60609  0.76939  1.0000
  O   O117      1.0  0.86679  0.55163  0.73578  1.0000
  O   O118      1.0  0.90583  0.53079  0.80085  1.0000
  H   H35       1.0  0.88675  0.57719  0.85936  1.0000
  O   O119      1.0  0.83814  0.63944  0.86883  1.0000
  O   O120      1.0  0.79886  0.66045  0.80342  1.0000
  H   H36       1.0  0.81812  0.61388  0.74507  1.0000
  Cu  Cu18      1.0  0.79843  0.68215  0.85626  1.0000
  C   C157      1.0  0.13988  0.57464  0.73131  1.0000
  C   C158      1.0  0.12025  0.56395  0.69846  1.0000
  C   C159      1.0  0.12732  0.58619  0.66493  1.0000
  C   C160      1.0  0.15403  0.61918  0.66417  1.0000
  C   C161      1.0  0.17375  0.62994  0.69711  1.0000
  C   C162      1.0  0.16660  0.60762  0.73061  1.0000
  O   O121      1.0  0.13294  0.55282  0.76421  1.0000
  O   O122      1.0  0.09404  0.53161  0.69915  1.0000
  H   H37       1.0  0.11275  0.57822  0.64064  1.0000
  O   O123      1.0  0.16089  0.64095  0.63117  1.0000
  O   O124      1.0  0.20004  0.66231  0.69657  1.0000
  H   H38       1.0  0.18114  0.61554  0.75492  1.0000
  Cu  Cu19      1.0  0.20028  0.68404  0.64374  1.0000
  C   C163      1.0  0.87968  0.46045  0.69857  1.0000
  C   C164      1.0  0.86006  0.44978  0.73144  1.0000
  C   C165      1.0  0.83331  0.41685  0.73084  1.0000
  C   C166      1.0  0.82611  0.39450  0.69738  1.0000
  C   C167      1.0  0.84577  0.40517  0.66439  1.0000
  C   C168      1.0  0.87252  0.43814  0.66508  1.0000
  O   O125      1.0  0.90592  0.49277  0.69916  1.0000
  O   O126      1.0  0.86708  0.47166  0.76427  1.0000
  H   H39       1.0  0.81882  0.40900  0.75520  1.0000
  O   O127      1.0  0.79981  0.36216  0.69692  1.0000
  O   O128      1.0  0.83885  0.38335  0.63140  1.0000
  H   H40       1.0  0.88704  0.44603  0.64075  1.0000
  Cu  Cu20      1.0  0.79941  0.34031  0.64418  1.0000
