data_image0
_chemical_formula_structural       C6O6C6O6C6O6C6O6C6O6C6O6C6O6C6O6Fe8C6HO2HO2C6HO2HO2C6HO2HO2C6HO2HO2Cu4
_chemical_formula_sum              "C72 O64 Fe8 H8 Cu4"
_cell_length_a       22.4068
_cell_length_b       10.5836
_cell_length_c       22.2958
_cell_angle_alpha    90
_cell_angle_beta     90
_cell_angle_gamma    89.9972

_space_group_name_H-M_alt    "P 1"
_space_group_IT_number       1

loop_
  _space_group_symop_operation_xyz
  'x, y, z'

loop_
  _atom_site_type_symbol
  _atom_site_label
  _atom_site_symmetry_multiplicity
  _atom_site_fract_x
  _atom_site_fract_y
  _atom_site_fract_z
  _atom_site_occupancy
  C   C1        1.0  0.22962  0.30248  0.22049  1.0000
  C   C2        1.0  0.26569  0.19446  0.22049  1.0000
  C   C3        1.0  0.28338  0.13993  0.16611  1.0000
  C   C4        1.0  0.26499  0.19341  0.11174  1.0000
  C   C5        1.0  0.22892  0.30142  0.11174  1.0000
  C   C6        1.0  0.21123  0.35596  0.16611  1.0000
  O   O1        1.0  0.21371  0.35156  0.26943  1.0000
  O   O2        1.0  0.28224  0.14633  0.26943  1.0000
  O   O3        1.0  0.31584  0.04272  0.16611  1.0000
  O   O4        1.0  0.28090  0.14433  0.06280  1.0000
  O   O5        1.0  0.21237  0.34955  0.06280  1.0000
  O   O6        1.0  0.17877  0.45317  0.16611  1.0000
  C   C7        1.0  0.73431  0.82560  0.22049  1.0000
  C   C8        1.0  0.77038  0.71758  0.22049  1.0000
  C   C9        1.0  0.78877  0.66411  0.16611  1.0000
  C   C10       1.0  0.77109  0.71864  0.11174  1.0000
  C   C11       1.0  0.73501  0.82665  0.11174  1.0000
  C   C12       1.0  0.71662  0.88013  0.16611  1.0000
  O   O7        1.0  0.71776  0.87372  0.26943  1.0000
  O   O8        1.0  0.78630  0.66850  0.26943  1.0000
  O   O9        1.0  0.82124  0.56690  0.16611  1.0000
  O   O10       1.0  0.78764  0.67051  0.06280  1.0000
  O   O11       1.0  0.71910  0.87573  0.06280  1.0000
  O   O12       1.0  0.68416  0.97734  0.16612  1.0000
  C   C13       1.0  0.23431  0.69449  0.27951  1.0000
  C   C14       1.0  0.27038  0.80250  0.27951  1.0000
  C   C15       1.0  0.28876  0.85598  0.33389  1.0000
  C   C16       1.0  0.27108  0.80144  0.38826  1.0000
  C   C17       1.0  0.23501  0.69344  0.38826  1.0000
  C   C18       1.0  0.21663  0.63996  0.33389  1.0000
  O   O13       1.0  0.21776  0.64636  0.23057  1.0000
  O   O14       1.0  0.28629  0.85157  0.23057  1.0000
  O   O15       1.0  0.32123  0.95318  0.33389  1.0000
  O   O16       1.0  0.28763  0.84958  0.43720  1.0000
  O   O17       1.0  0.21910  0.64436  0.43720  1.0000
  O   O18       1.0  0.18416  0.54275  0.33389  1.0000
  C   C19       1.0  0.72962  0.21757  0.27952  1.0000
  C   C20       1.0  0.76569  0.32558  0.27952  1.0000
  C   C21       1.0  0.78337  0.38012  0.33389  1.0000
  C   C22       1.0  0.76499  0.32664  0.38827  1.0000
  C   C23       1.0  0.72892  0.21863  0.38827  1.0000
  C   C24       1.0  0.71124  0.16409  0.33389  1.0000
  O   O19       1.0  0.71371  0.16849  0.23058  1.0000
  O   O20       1.0  0.78224  0.37371  0.23058  1.0000
  O   O21       1.0  0.81583  0.47733  0.33389  1.0000
  O   O22       1.0  0.78090  0.37572  0.43721  1.0000
  O   O23       1.0  0.71237  0.17049  0.43721  1.0000
  O   O24       1.0  0.67878  0.06688  0.33389  1.0000
  C   C25       1.0  0.78877  0.66411  0.83389  1.0000
  C   C26       1.0  0.77108  0.71865  0.88826  1.0000
  C   C27       1.0  0.73501  0.82666  0.88826  1.0000
  C   C28       1.0  0.71662  0.88013  0.83389  1.0000
  C   C29       1.0  0.73431  0.82560  0.77951  1.0000
  C   C30       1.0  0.77038  0.71759  0.77951  1.0000
  O   O25       1.0  0.82123  0.56690  0.83389  1.0000
  O   O26       1.0  0.78763  0.67052  0.93720  1.0000
  O   O27       1.0  0.71910  0.87574  0.93720  1.0000
  O   O28       1.0  0.68416  0.97734  0.83389  1.0000
  O   O29       1.0  0.71776  0.87373  0.73057  1.0000
  O   O30       1.0  0.78630  0.66851  0.73057  1.0000
  C   C31       1.0  0.28337  0.13993  0.83389  1.0000
  C   C32       1.0  0.26498  0.19341  0.88827  1.0000
  C   C33       1.0  0.22891  0.30143  0.88827  1.0000
  C   C34       1.0  0.21123  0.35596  0.83389  1.0000
  C   C35       1.0  0.22962  0.30248  0.77951  1.0000
  C   C36       1.0  0.26569  0.19447  0.77951  1.0000
  O   O31       1.0  0.31584  0.04272  0.83389  1.0000
  O   O32       1.0  0.28090  0.14433  0.93721  1.0000
  O   O33       1.0  0.21237  0.34956  0.93721  1.0000
  O   O34       1.0  0.17877  0.45317  0.83389  1.0000
  O   O35       1.0  0.21371  0.35156  0.73057  1.0000
  O   O36       1.0  0.28224  0.14634  0.73057  1.0000
  C   C37       1.0  0.78337  0.38011  0.66611  1.0000
  C   C38       1.0  0.76499  0.32663  0.61173  1.0000
  C   C39       1.0  0.72892  0.21862  0.61173  1.0000
  C   C40       1.0  0.71124  0.16409  0.66611  1.0000
  C   C41       1.0  0.72962  0.21757  0.72048  1.0000
  C   C42       1.0  0.76569  0.32558  0.72048  1.0000
  O   O37       1.0  0.81583  0.47732  0.66611  1.0000
  O   O38       1.0  0.78090  0.37571  0.56279  1.0000
  O   O39       1.0  0.71237  0.17049  0.56279  1.0000
  O   O40       1.0  0.67878  0.06688  0.66611  1.0000
  O   O41       1.0  0.71371  0.16849  0.76942  1.0000
  O   O42       1.0  0.78224  0.37371  0.76942  1.0000
  C   C43       1.0  0.28876  0.85597  0.66611  1.0000
  C   C44       1.0  0.27108  0.80144  0.61174  1.0000
  C   C45       1.0  0.23501  0.69343  0.61173  1.0000
  C   C46       1.0  0.21663  0.63996  0.66611  1.0000
  C   C47       1.0  0.23431  0.69449  0.72049  1.0000
  C   C48       1.0  0.27038  0.80249  0.72049  1.0000
  O   O43       1.0  0.32123  0.95318  0.66611  1.0000
  O   O44       1.0  0.28763  0.84957  0.56280  1.0000
  O   O45       1.0  0.21910  0.64435  0.56279  1.0000
  O   O46       1.0  0.18416  0.54275  0.66611  1.0000
  O   O47       1.0  0.21776  0.64635  0.76943  1.0000
  O   O48       1.0  0.28629  0.85157  0.76943  1.0000
  Fe  Fe1       1.0  0.33349  0.00199  0.25000  1.0000
  Fe  Fe2       1.0  0.66651  0.01806  0.25000  1.0000
  Fe  Fe3       1.0  0.66651  0.01806  0.75000  1.0000
  Fe  Fe4       1.0  0.33349  0.00199  0.75000  1.0000
  Fe  Fe5       1.0  0.83349  0.51809  0.25000  1.0000
  Fe  Fe6       1.0  0.16651  0.50199  0.25000  1.0000
  Fe  Fe7       1.0  0.16651  0.50199  0.75000  1.0000
  Fe  Fe8       1.0  0.83349  0.51809  0.75000  1.0000
  C   C49       1.0  0.49857  0.14227  0.25000  1.0000
  C   C50       1.0  0.44519  0.07354  0.25000  1.0000
  C   C51       1.0  0.44662  0.94129  0.25000  1.0000
  C   C52       1.0  0.50143  0.87778  0.25000  1.0000
  C   C53       1.0  0.55481  0.94651  0.25000  1.0000
  C   C54       1.0  0.55338  0.07875  0.25000  1.0000
  H   H1        1.0  0.49750  0.24145  0.25000  1.0000
  O   O49       1.0  0.39586  0.13070  0.25000  1.0000
  O   O50       1.0  0.39857  0.87943  0.25000  1.0000
  H   H2        1.0  0.50250  0.77859  0.25000  1.0000
  O   O51       1.0  0.60414  0.88935  0.25000  1.0000
  O   O52       1.0  0.60143  0.14061  0.25000  1.0000
  C   C55       1.0  0.49857  0.14227  0.75000  1.0000
  C   C56       1.0  0.44519  0.07354  0.75000  1.0000
  C   C57       1.0  0.44662  0.94129  0.75000  1.0000
  C   C58       1.0  0.50143  0.87778  0.75000  1.0000
  C   C59       1.0  0.55481  0.94651  0.75000  1.0000
  C   C60       1.0  0.55338  0.07875  0.75000  1.0000
  H   H3        1.0  0.49750  0.24145  0.75000  1.0000
  O   O53       1.0  0.39586  0.13070  0.75000  1.0000
  O   O54       1.0  0.39857  0.87943  0.75000  1.0000
  H   H4        1.0  0.50250  0.77859  0.75000  1.0000
  O   O55       1.0  0.60414  0.88935  0.75000  1.0000
  O   O56       1.0  0.60143  0.14061  0.75000  1.0000
  C   C61       1.0  0.00142  0.64229  0.25000  1.0000
  C   C62       1.0  0.05481  0.57355  0.25000  1.0000
  C   C63       1.0  0.05338  0.44130  0.25000  1.0000
  C   C64       1.0  0.99858  0.37779  0.25000  1.0000
  C   C65       1.0  0.94519  0.44653  0.25000  1.0000
  C   C66       1.0  0.94662  0.57878  0.25000  1.0000
  H   H5        1.0  0.00249  0.74147  0.25000  1.0000
  O   O57       1.0  0.10413  0.63071  0.25000  1.0000
  O   O58       1.0  0.10143  0.37944  0.25000  1.0000
  H   H6        1.0  0.99751  0.27861  0.25000  1.0000
  O   O59       1.0  0.89587  0.38938  0.25000  1.0000
  O   O60       1.0  0.89857  0.64064  0.25000  1.0000
  C   C67       1.0  0.00142  0.64229  0.75000  1.0000
  C   C68       1.0  0.94662  0.57878  0.75000  1.0000
  C   C69       1.0  0.94519  0.44653  0.75000  1.0000
  C   C70       1.0  0.99858  0.37779  0.75000  1.0000
  C   C71       1.0  0.05338  0.44130  0.75000  1.0000
  C   C72       1.0  0.05481  0.57355  0.75000  1.0000
  H   H7        1.0  0.00249  0.74147  0.75000  1.0000
  O   O61       1.0  0.89857  0.64064  0.75000  1.0000
  O   O62       1.0  0.89587  0.38938  0.75000  1.0000
  H   H8        1.0  0.99751  0.27861  0.75000  1.0000
  O   O63       1.0  0.10143  0.37944  0.75000  1.0000
  O   O64       1.0  0.10414  0.63071  0.75000  1.0000
  Cu  Cu1       1.0  0.24663  0.24694  0.99990  1.0000
  Cu  Cu2       1.0  0.75337  0.77313  0.99990  1.0000
  Cu  Cu3       1.0  0.25336  0.74696  0.50000  1.0000
  Cu  Cu4       1.0  0.74664  0.27310  0.50000  1.0000
