data_image0
_chemical_formula_structural       C6O6C6O6C6O6C6O6C6O6C6O6C6O6C6O6C6O6C6O6C6O6C6O6C6O6C6O6C6O6C6O6C6O6C6O6C6O6C6O6C6O6C6O6C6O6C6O6C6O6C6O6C6O6C6O6C6O6C6O6C6O6C6O6C6O6C6O6C6O6C6O6Cu18Zn36
_chemical_formula_sum              "C216 O216 Cu18 Zn36"
_cell_length_a       33.0541
_cell_length_b       33.054
_cell_length_c       43.4315
_cell_angle_alpha    90.0131
_cell_angle_beta     89.9869
_cell_angle_gamma    120.004

_space_group_name_H-M_alt    "P 1"
_space_group_IT_number       1

loop_
  _space_group_symop_operation_xyz
  'x, y, z'

loop_
  _atom_site_type_symbol
  _atom_site_label
  _atom_site_symmetry_multiplicity
  _atom_site_fract_x
  _atom_site_fract_y
  _atom_site_fract_z
  _atom_site_occupancy
  C   C1        1.0  0.37382  0.96555  0.98917  1.0000
  C   C2        1.0  0.42053  0.98562  0.99839  1.0000
  C   C3        1.0  0.44059  0.02575  0.01681  1.0000
  C   C4        1.0  0.41395  0.04582  0.02602  1.0000
  C   C5        1.0  0.36723  0.02575  0.01681  1.0000
  C   C6        1.0  0.34717  0.98562  0.99838  1.0000
  O   O1        1.0  0.35576  0.92943  0.97259  1.0000
  O   O2        1.0  0.44451  0.96756  0.99010  1.0000
  O   O3        1.0  0.48263  0.04381  0.02511  1.0000
  O   O4        1.0  0.43200  0.08194  0.04261  1.0000
  O   O5        1.0  0.34325  0.04382  0.02510  1.0000
  O   O6        1.0  0.30513  0.96756  0.99009  1.0000
  C   C7        1.0  0.98582  0.34690  0.01681  1.0000
  C   C8        1.0  0.02596  0.36696  0.99839  1.0000
  C   C9        1.0  0.04603  0.41367  0.98917  1.0000
  C   C10       1.0  0.02596  0.44032  0.99838  1.0000
  C   C11       1.0  0.98583  0.42026  0.01681  1.0000
  C   C12       1.0  0.96576  0.37355  0.02602  1.0000
  O   O7        1.0  0.96776  0.30486  0.02511  1.0000
  O   O8        1.0  0.04401  0.34298  0.99010  1.0000
  O   O9        1.0  0.08215  0.43173  0.97259  1.0000
  O   O10       1.0  0.04402  0.48237  0.99009  1.0000
  O   O11       1.0  0.96777  0.44425  0.02510  1.0000
  O   O12       1.0  0.92963  0.35550  0.04261  1.0000
  C   C13       1.0  0.64461  0.66443  0.99839  1.0000
  C   C14       1.0  0.66468  0.64437  0.01682  1.0000
  C   C15       1.0  0.63803  0.59766  0.02603  1.0000
  C   C16       1.0  0.59131  0.57100  0.01682  1.0000
  C   C17       1.0  0.57125  0.59106  0.99840  1.0000
  C   C18       1.0  0.59790  0.63778  0.98918  1.0000
  O   O13       1.0  0.66860  0.70647  0.99010  1.0000
  O   O14       1.0  0.70672  0.66835  0.02510  1.0000
  O   O15       1.0  0.65608  0.57960  0.04261  1.0000
  O   O16       1.0  0.56733  0.52896  0.02511  1.0000
  O   O17       1.0  0.52921  0.56708  0.99011  1.0000
  O   O18       1.0  0.57984  0.65583  0.97260  1.0000
  C   C19       1.0  0.59129  0.02571  0.01684  1.0000
  C   C20       1.0  0.63800  0.04578  0.02606  1.0000
  C   C21       1.0  0.66465  0.02571  0.01685  1.0000
  C   C22       1.0  0.64458  0.98558  0.99842  1.0000
  C   C23       1.0  0.59787  0.96551  0.98921  1.0000
  C   C24       1.0  0.57122  0.98558  0.99842  1.0000
  O   O19       1.0  0.56730  0.04377  0.02513  1.0000
  O   O20       1.0  0.65606  0.08190  0.04264  1.0000
  O   O21       1.0  0.70669  0.04377  0.02514  1.0000
  O   O22       1.0  0.66857  0.96752  0.99013  1.0000
  O   O23       1.0  0.57981  0.92939  0.97262  1.0000
  O   O24       1.0  0.52918  0.96752  0.99012  1.0000
  C   C25       1.0  0.98585  0.64436  0.01681  1.0000
  C   C26       1.0  0.02599  0.66442  0.99839  1.0000
  C   C27       1.0  0.04605  0.63777  0.98917  1.0000
  C   C28       1.0  0.02598  0.59105  0.99838  1.0000
  C   C29       1.0  0.98584  0.57099  0.01681  1.0000
  C   C30       1.0  0.96578  0.59764  0.02602  1.0000
  O   O25       1.0  0.96779  0.66834  0.02510  1.0000
  O   O26       1.0  0.04405  0.70646  0.99009  1.0000
  O   O27       1.0  0.08217  0.65582  0.97259  1.0000
  O   O28       1.0  0.04403  0.56707  0.99009  1.0000
  O   O29       1.0  0.96778  0.52895  0.02510  1.0000
  O   O30       1.0  0.92966  0.57959  0.04261  1.0000
  C   C31       1.0  0.34714  0.36697  0.99842  1.0000
  C   C32       1.0  0.36720  0.34691  0.01684  1.0000
  C   C33       1.0  0.41391  0.37356  0.02605  1.0000
  C   C34       1.0  0.44056  0.42027  0.01684  1.0000
  C   C35       1.0  0.42050  0.44033  0.99841  1.0000
  C   C36       1.0  0.37379  0.41368  0.98920  1.0000
  O   O31       1.0  0.30509  0.34298  0.99013  1.0000
  O   O32       1.0  0.34322  0.30487  0.02513  1.0000
  O   O33       1.0  0.43197  0.35551  0.04263  1.0000
  O   O34       1.0  0.48261  0.44426  0.02513  1.0000
  O   O35       1.0  0.44449  0.48237  0.99012  1.0000
  O   O36       1.0  0.35573  0.43173  0.97262  1.0000
  C   C37       1.0  0.04051  0.29893  0.32246  1.0000
  C   C38       1.0  0.08722  0.31900  0.33168  1.0000
  C   C39       1.0  0.10728  0.35913  0.35011  1.0000
  C   C40       1.0  0.08063  0.37920  0.35931  1.0000
  C   C41       1.0  0.03392  0.35913  0.35009  1.0000
  C   C42       1.0  0.01386  0.31900  0.33167  1.0000
  O   O37       1.0  0.02246  0.26281  0.30588  1.0000
  O   O38       1.0  0.11121  0.30094  0.32339  1.0000
  O   O39       1.0  0.14932  0.37719  0.35840  1.0000
  O   O40       1.0  0.09868  0.41532  0.37590  1.0000
  O   O41       1.0  0.00993  0.37719  0.35838  1.0000
  O   O42       1.0  0.97182  0.30094  0.32337  1.0000
  C   C43       1.0  0.65252  0.68028  0.35018  1.0000
  C   C44       1.0  0.69265  0.70034  0.33175  1.0000
  C   C45       1.0  0.71272  0.74705  0.32253  1.0000
  C   C46       1.0  0.69266  0.77370  0.33174  1.0000
  C   C47       1.0  0.65252  0.75364  0.35017  1.0000
  C   C48       1.0  0.63245  0.70693  0.35938  1.0000
  O   O43       1.0  0.63446  0.63824  0.35847  1.0000
  O   O44       1.0  0.71071  0.67635  0.32346  1.0000
  O   O45       1.0  0.74884  0.76510  0.30595  1.0000
  O   O46       1.0  0.71072  0.81574  0.32344  1.0000
  O   O47       1.0  0.63446  0.77762  0.35846  1.0000
  O   O48       1.0  0.59633  0.68887  0.37597  1.0000
  C   C49       1.0  0.31130  0.99780  0.33175  1.0000
  C   C50       1.0  0.33136  0.97773  0.35017  1.0000
  C   C51       1.0  0.30471  0.93102  0.35938  1.0000
  C   C52       1.0  0.25800  0.90437  0.35017  1.0000
  C   C53       1.0  0.23793  0.92444  0.33175  1.0000
  C   C54       1.0  0.26459  0.97115  0.32253  1.0000
  O   O49       1.0  0.33529  0.03984  0.32345  1.0000
  O   O50       1.0  0.37341  0.00172  0.35846  1.0000
  O   O51       1.0  0.32277  0.91296  0.37596  1.0000
  O   O52       1.0  0.23401  0.86233  0.35846  1.0000
  O   O53       1.0  0.19589  0.90045  0.32346  1.0000
  O   O54       1.0  0.24653  0.98921  0.30596  1.0000
  C   C55       1.0  0.25797  0.35909  0.35018  1.0000
  C   C56       1.0  0.30468  0.37915  0.35940  1.0000
  C   C57       1.0  0.33133  0.35908  0.35019  1.0000
  C   C58       1.0  0.31127  0.31895  0.33177  1.0000
  C   C59       1.0  0.26456  0.29889  0.32255  1.0000
  C   C60       1.0  0.23791  0.31895  0.33175  1.0000
  O   O55       1.0  0.23399  0.37715  0.35846  1.0000
  O   O56       1.0  0.32274  0.41527  0.37598  1.0000
  O   O57       1.0  0.37337  0.37714  0.35849  1.0000
  O   O58       1.0  0.33526  0.30089  0.32348  1.0000
  O   O59       1.0  0.24651  0.26276  0.30596  1.0000
  O   O60       1.0  0.19588  0.30090  0.32345  1.0000
  C   C61       1.0  0.65252  0.97771  0.35013  1.0000
  C   C62       1.0  0.69266  0.99777  0.33170  1.0000
  C   C63       1.0  0.71272  0.97112  0.32249  1.0000
  C   C64       1.0  0.69265  0.92441  0.33171  1.0000
  C   C65       1.0  0.65252  0.90435  0.35013  1.0000
  C   C66       1.0  0.63246  0.93100  0.35934  1.0000
  O   O61       1.0  0.63447  0.00170  0.35842  1.0000
  O   O62       1.0  0.71072  0.03981  0.32340  1.0000
  O   O63       1.0  0.74884  0.98918  0.30590  1.0000
  O   O64       1.0  0.71071  0.90043  0.32342  1.0000
  O   O65       1.0  0.63446  0.86231  0.35843  1.0000
  O   O66       1.0  0.59634  0.91295  0.37593  1.0000
  C   C67       1.0  0.01382  0.70034  0.33174  1.0000
  C   C68       1.0  0.03388  0.68027  0.35016  1.0000
  C   C69       1.0  0.08059  0.70692  0.35938  1.0000
  C   C70       1.0  0.10724  0.75364  0.35017  1.0000
  C   C71       1.0  0.08718  0.77370  0.33174  1.0000
  C   C72       1.0  0.04047  0.74705  0.32253  1.0000
  O   O67       1.0  0.97178  0.67635  0.32345  1.0000
  O   O68       1.0  0.00989  0.63823  0.35845  1.0000
  O   O69       1.0  0.09865  0.68886  0.37596  1.0000
  O   O70       1.0  0.14929  0.77762  0.35846  1.0000
  O   O71       1.0  0.11117  0.81574  0.32346  1.0000
  O   O72       1.0  0.02242  0.76511  0.30595  1.0000
  C   C73       1.0  0.70720  0.63224  0.65581  1.0000
  C   C74       1.0  0.75391  0.65231  0.66503  1.0000
  C   C75       1.0  0.77397  0.69244  0.68346  1.0000
  C   C76       1.0  0.74732  0.71251  0.69267  1.0000
  C   C77       1.0  0.70061  0.69244  0.68345  1.0000
  C   C78       1.0  0.68055  0.65231  0.66502  1.0000
  O   O73       1.0  0.68914  0.59612  0.63923  1.0000
  O   O74       1.0  0.77789  0.63425  0.65674  1.0000
  O   O75       1.0  0.81601  0.71050  0.69176  1.0000
  O   O76       1.0  0.76537  0.74863  0.70925  1.0000
  O   O77       1.0  0.67663  0.71051  0.69173  1.0000
  O   O78       1.0  0.63851  0.63425  0.65672  1.0000
  C   C79       1.0  0.31921  0.01360  0.68352  1.0000
  C   C80       1.0  0.35934  0.03365  0.66509  1.0000
  C   C81       1.0  0.37941  0.08036  0.65588  1.0000
  C   C82       1.0  0.35935  0.10702  0.66509  1.0000
  C   C83       1.0  0.31922  0.08696  0.68351  1.0000
  C   C84       1.0  0.29915  0.04025  0.69273  1.0000
  O   O79       1.0  0.30114  0.97155  0.69181  1.0000
  O   O80       1.0  0.37739  0.00966  0.65680  1.0000
  O   O81       1.0  0.41553  0.09842  0.63929  1.0000
  O   O82       1.0  0.37742  0.14906  0.65679  1.0000
  O   O83       1.0  0.30116  0.11095  0.69180  1.0000
  O   O84       1.0  0.26303  0.02220  0.70931  1.0000
  C   C85       1.0  0.97801  0.33110  0.66503  1.0000
  C   C86       1.0  0.99807  0.31103  0.68346  1.0000
  C   C87       1.0  0.97142  0.26432  0.69267  1.0000
  C   C88       1.0  0.92470  0.23767  0.68346  1.0000
  C   C89       1.0  0.90464  0.25773  0.66504  1.0000
  C   C90       1.0  0.93129  0.30445  0.65582  1.0000
  O   O85       1.0  0.00199  0.37314  0.65674  1.0000
  O   O86       1.0  0.04011  0.33502  0.69174  1.0000
  O   O87       1.0  0.98947  0.24627  0.70925  1.0000
  O   O88       1.0  0.90071  0.19563  0.69175  1.0000
  O   O89       1.0  0.86260  0.23375  0.65675  1.0000
  O   O90       1.0  0.91323  0.32250  0.63924  1.0000
  C   C91       1.0  0.92466  0.69238  0.68352  1.0000
  C   C92       1.0  0.97137  0.71245  0.69274  1.0000
  C   C93       1.0  0.99802  0.69238  0.68353  1.0000
  C   C94       1.0  0.97796  0.65225  0.66511  1.0000
  C   C95       1.0  0.93125  0.63218  0.65589  1.0000
  C   C96       1.0  0.90460  0.65225  0.66509  1.0000
  O   O91       1.0  0.90067  0.71044  0.69181  1.0000
  O   O92       1.0  0.98942  0.74857  0.70933  1.0000
  O   O93       1.0  0.04005  0.71044  0.69183  1.0000
  O   O94       1.0  0.00194  0.63419  0.65682  1.0000
  O   O95       1.0  0.91319  0.59606  0.63930  1.0000
  O   O96       1.0  0.86256  0.63419  0.65680  1.0000
  C   C97       1.0  0.31924  0.31105  0.68348  1.0000
  C   C98       1.0  0.35938  0.33111  0.66506  1.0000
  C   C99       1.0  0.37944  0.30446  0.65585  1.0000
  C   C100      1.0  0.35937  0.25775  0.66507  1.0000
  C   C101      1.0  0.31924  0.23769  0.68349  1.0000
  C   C102      1.0  0.29918  0.26434  0.69270  1.0000
  O   O97       1.0  0.30119  0.33504  0.69177  1.0000
  O   O98       1.0  0.37744  0.37315  0.65676  1.0000
  O   O99       1.0  0.41556  0.32251  0.63926  1.0000
  O   O100      1.0  0.37743  0.23376  0.65678  1.0000
  O   O101      1.0  0.30118  0.19565  0.69179  1.0000
  O   O102      1.0  0.26306  0.24629  0.70929  1.0000
  C   C103      1.0  0.68051  0.03365  0.66508  1.0000
  C   C104      1.0  0.70057  0.01359  0.68350  1.0000
  C   C105      1.0  0.74728  0.04024  0.69271  1.0000
  C   C106      1.0  0.77394  0.08695  0.68349  1.0000
  C   C107      1.0  0.75387  0.10701  0.66507  1.0000
  C   C108      1.0  0.70716  0.08036  0.65586  1.0000
  O   O103      1.0  0.63846  0.00966  0.65679  1.0000
  O   O104      1.0  0.67658  0.97155  0.69180  1.0000
  O   O105      1.0  0.76534  0.02219  0.70929  1.0000
  O   O106      1.0  0.81598  0.11094  0.69178  1.0000
  O   O107      1.0  0.77786  0.14905  0.65678  1.0000
  O   O108      1.0  0.68910  0.09842  0.63928  1.0000
  C   C109      1.0  0.36397  0.16354  0.11922  1.0000
  C   C110      1.0  0.37369  0.14722  0.09204  1.0000
  C   C111      1.0  0.38341  0.17325  0.06487  1.0000
  C   C112      1.0  0.38341  0.21560  0.06488  1.0000
  C   C113      1.0  0.37369  0.23192  0.09205  1.0000
  C   C114      1.0  0.36397  0.20589  0.11922  1.0000
  O   O109      1.0  0.35523  0.14011  0.14367  1.0000
  O   O110      1.0  0.37370  0.10910  0.09204  1.0000
  O   O111      1.0  0.39216  0.15856  0.04041  1.0000
  O   O112      1.0  0.39215  0.23903  0.04042  1.0000
  O   O113      1.0  0.37368  0.27004  0.09205  1.0000
  O   O114      1.0  0.35522  0.22058  0.14368  1.0000
  C   C115      1.0  0.84804  0.20589  0.11921  1.0000
  C   C116      1.0  0.86435  0.23193  0.09204  1.0000
  C   C117      1.0  0.83830  0.21562  0.06487  1.0000
  C   C118      1.0  0.79595  0.17326  0.06488  1.0000
  C   C119      1.0  0.77964  0.14722  0.09205  1.0000
  C   C120      1.0  0.80568  0.16354  0.11921  1.0000
  O   O115      1.0  0.87148  0.22058  0.14366  1.0000
  O   O116      1.0  0.90247  0.27006  0.09203  1.0000
  O   O117      1.0  0.85298  0.23905  0.04042  1.0000
  O   O118      1.0  0.77250  0.15857  0.04043  1.0000
  O   O119      1.0  0.74151  0.10910  0.09205  1.0000
  O   O120      1.0  0.79100  0.14010  0.14366  1.0000
  C   C121      1.0  0.79599  0.62819  0.06487  1.0000
  C   C122      1.0  0.83834  0.62818  0.06486  1.0000
  C   C123      1.0  0.86438  0.63791  0.09203  1.0000
  C   C124      1.0  0.84806  0.64763  0.11920  1.0000
  C   C125      1.0  0.80571  0.64763  0.11921  1.0000
  C   C126      1.0  0.77967  0.63791  0.09204  1.0000
  O   O121      1.0  0.77256  0.61944  0.04041  1.0000
  O   O122      1.0  0.85303  0.61943  0.04041  1.0000
  O   O123      1.0  0.90250  0.63790  0.09203  1.0000
  O   O124      1.0  0.87149  0.65638  0.14366  1.0000
  O   O125      1.0  0.79102  0.65638  0.14366  1.0000
  O   O126      1.0  0.74155  0.63791  0.09204  1.0000
  C   C127      1.0  0.17347  0.38314  0.95036  1.0000
  C   C128      1.0  0.21583  0.38314  0.95036  1.0000
  C   C129      1.0  0.23215  0.37342  0.92318  1.0000
  C   C130      1.0  0.20613  0.36370  0.89601  1.0000
  C   C131      1.0  0.16377  0.36370  0.89601  1.0000
  C   C132      1.0  0.14744  0.37342  0.92318  1.0000
  O   O127      1.0  0.15878  0.39188  0.97481  1.0000
  O   O128      1.0  0.23925  0.39188  0.97481  1.0000
  O   O129      1.0  0.27027  0.37342  0.92319  1.0000
  O   O130      1.0  0.22082  0.35495  0.87156  1.0000
  O   O131      1.0  0.14035  0.35495  0.87156  1.0000
  O   O132      1.0  0.10933  0.37342  0.92318  1.0000
  C   C133      1.0  0.64786  0.80545  0.89601  1.0000
  C   C134      1.0  0.63813  0.77941  0.92317  1.0000
  C   C135      1.0  0.62841  0.79573  0.95035  1.0000
  C   C136      1.0  0.62840  0.83808  0.95035  1.0000
  C   C137      1.0  0.63813  0.86412  0.92318  1.0000
  C   C138      1.0  0.64785  0.84780  0.89601  1.0000
  O   O133      1.0  0.65661  0.79077  0.87155  1.0000
  O   O134      1.0  0.63814  0.74129  0.92317  1.0000
  O   O135      1.0  0.61965  0.77229  0.97480  1.0000
  O   O136      1.0  0.61965  0.85276  0.97481  1.0000
  O   O137      1.0  0.63812  0.90223  0.92319  1.0000
  O   O138      1.0  0.65661  0.87124  0.87156  1.0000
  C   C139      1.0  0.20615  0.84780  0.89601  1.0000
  C   C140      1.0  0.23219  0.86412  0.92317  1.0000
  C   C141      1.0  0.21588  0.83807  0.95034  1.0000
  C   C142      1.0  0.17352  0.79572  0.95034  1.0000
  C   C143      1.0  0.14748  0.77940  0.92317  1.0000
  C   C144      1.0  0.16379  0.80544  0.89600  1.0000
  O   O139      1.0  0.22083  0.87124  0.87155  1.0000
  O   O140      1.0  0.27031  0.90224  0.92317  1.0000
  O   O141      1.0  0.23932  0.85276  0.97479  1.0000
  O   O142      1.0  0.15884  0.77228  0.97479  1.0000
  O   O143      1.0  0.10936  0.74128  0.92317  1.0000
  O   O144      1.0  0.14035  0.79076  0.87155  1.0000
  C   C145      1.0  0.03062  0.49687  0.45252  1.0000
  C   C146      1.0  0.04034  0.48056  0.42535  1.0000
  C   C147      1.0  0.05006  0.50659  0.39818  1.0000
  C   C148      1.0  0.05005  0.54895  0.39819  1.0000
  C   C149      1.0  0.04033  0.56526  0.42536  1.0000
  C   C150      1.0  0.03062  0.53922  0.45253  1.0000
  O   O145      1.0  0.02188  0.47343  0.47697  1.0000
  O   O146      1.0  0.04035  0.44244  0.42534  1.0000
  O   O147      1.0  0.05881  0.49191  0.37372  1.0000
  O   O148      1.0  0.05880  0.57238  0.37374  1.0000
  O   O149      1.0  0.04033  0.60338  0.42537  1.0000
  O   O150      1.0  0.02187  0.55390  0.47699  1.0000
  C   C151      1.0  0.51471  0.53926  0.45256  1.0000
  C   C152      1.0  0.53102  0.56530  0.42539  1.0000
  C   C153      1.0  0.50498  0.54899  0.39823  1.0000
  C   C154      1.0  0.46262  0.50663  0.39823  1.0000
  C   C155      1.0  0.44631  0.48059  0.42540  1.0000
  C   C156      1.0  0.47236  0.49690  0.45256  1.0000
  O   O151      1.0  0.53816  0.55394  0.47701  1.0000
  O   O152      1.0  0.56915  0.60343  0.42539  1.0000
  O   O153      1.0  0.51966  0.57243  0.37378  1.0000
  O   O154      1.0  0.43918  0.49195  0.37378  1.0000
  O   O155      1.0  0.40819  0.44247  0.42540  1.0000
  O   O156      1.0  0.45768  0.47346  0.47702  1.0000
  C   C157      1.0  0.46268  0.96155  0.39820  1.0000
  C   C158      1.0  0.50503  0.96155  0.39819  1.0000
  C   C159      1.0  0.53107  0.97126  0.42536  1.0000
  C   C160      1.0  0.51475  0.98098  0.45254  1.0000
  C   C161      1.0  0.47240  0.98098  0.45254  1.0000
  C   C162      1.0  0.44636  0.97127  0.42538  1.0000
  O   O157      1.0  0.43925  0.95281  0.37375  1.0000
  O   O158      1.0  0.51972  0.95280  0.37374  1.0000
  O   O159      1.0  0.56919  0.97126  0.42536  1.0000
  O   O160      1.0  0.53818  0.98972  0.47699  1.0000
  O   O161      1.0  0.45771  0.98973  0.47700  1.0000
  O   O162      1.0  0.40824  0.97127  0.42538  1.0000
  C   C163      1.0  0.84015  0.71651  0.28369  1.0000
  C   C164      1.0  0.88251  0.71651  0.28369  1.0000
  C   C165      1.0  0.89883  0.70679  0.25652  1.0000
  C   C166      1.0  0.87279  0.69706  0.22935  1.0000
  C   C167      1.0  0.83044  0.69707  0.22935  1.0000
  C   C168      1.0  0.81412  0.70679  0.25652  1.0000
  O   O163      1.0  0.82547  0.72526  0.30815  1.0000
  O   O164      1.0  0.90594  0.72526  0.30814  1.0000
  O   O165      1.0  0.93695  0.70679  0.25651  1.0000
  O   O166      1.0  0.88748  0.68831  0.20489  1.0000
  O   O167      1.0  0.80701  0.68831  0.20490  1.0000
  O   O168      1.0  0.77600  0.70679  0.25652  1.0000
  C   C169      1.0  0.31456  0.13883  0.22936  1.0000
  C   C170      1.0  0.30485  0.11279  0.25653  1.0000
  C   C171      1.0  0.29512  0.12911  0.28370  1.0000
  C   C172      1.0  0.29512  0.17146  0.28371  1.0000
  C   C173      1.0  0.30484  0.19750  0.25654  1.0000
  C   C174      1.0  0.31456  0.18118  0.22936  1.0000
  O   O169      1.0  0.32332  0.12414  0.20490  1.0000
  O   O170      1.0  0.30485  0.07467  0.25653  1.0000
  O   O171      1.0  0.28637  0.10568  0.30816  1.0000
  O   O172      1.0  0.28637  0.18615  0.30816  1.0000
  O   O173      1.0  0.30484  0.23561  0.25654  1.0000
  O   O174      1.0  0.32331  0.20461  0.20491  1.0000
  C   C175      1.0  0.87282  0.18115  0.22931  1.0000
  C   C176      1.0  0.89887  0.19747  0.25648  1.0000
  C   C177      1.0  0.88256  0.17143  0.28365  1.0000
  C   C178      1.0  0.84020  0.12907  0.28365  1.0000
  C   C179      1.0  0.81415  0.11275  0.25648  1.0000
  C   C180      1.0  0.83046  0.13879  0.22931  1.0000
  O   O175      1.0  0.88750  0.20458  0.20486  1.0000
  O   O176      1.0  0.93699  0.23559  0.25647  1.0000
  O   O177      1.0  0.90600  0.18612  0.30810  1.0000
  O   O178      1.0  0.82552  0.10563  0.30810  1.0000
  O   O179      1.0  0.77603  0.07463  0.25649  1.0000
  O   O180      1.0  0.80702  0.12410  0.20486  1.0000
  C   C181      1.0  0.69732  0.83020  0.78587  1.0000
  C   C182      1.0  0.70705  0.81389  0.75869  1.0000
  C   C183      1.0  0.71678  0.83993  0.73153  1.0000
  C   C184      1.0  0.71677  0.88228  0.73153  1.0000
  C   C185      1.0  0.70704  0.89859  0.75871  1.0000
  C   C186      1.0  0.69732  0.87255  0.78587  1.0000
  O   O181      1.0  0.68857  0.80677  0.81032  1.0000
  O   O182      1.0  0.70706  0.77577  0.75869  1.0000
  O   O183      1.0  0.72553  0.82525  0.70707  1.0000
  O   O184      1.0  0.72553  0.90572  0.70708  1.0000
  O   O185      1.0  0.70704  0.93671  0.75871  1.0000
  O   O186      1.0  0.68856  0.88723  0.81033  1.0000
  C   C187      1.0  0.18139  0.87258  0.78590  1.0000
  C   C188      1.0  0.19770  0.89862  0.75873  1.0000
  C   C189      1.0  0.17166  0.88230  0.73157  1.0000
  C   C190      1.0  0.12931  0.83995  0.73157  1.0000
  C   C191      1.0  0.11299  0.81390  0.75874  1.0000
  C   C192      1.0  0.13903  0.83022  0.78590  1.0000
  O   O187      1.0  0.20483  0.88726  0.81035  1.0000
  O   O188      1.0  0.23583  0.93674  0.75873  1.0000
  O   O189      1.0  0.18635  0.90574  0.70711  1.0000
  O   O190      1.0  0.10587  0.82526  0.70712  1.0000
  O   O191      1.0  0.07487  0.77578  0.75874  1.0000
  O   O192      1.0  0.12435  0.80678  0.81035  1.0000
  C   C193      1.0  0.12938  0.29487  0.73152  1.0000
  C   C194      1.0  0.17173  0.29487  0.73152  1.0000
  C   C195      1.0  0.19776  0.30459  0.75869  1.0000
  C   C196      1.0  0.18143  0.31431  0.78587  1.0000
  C   C197      1.0  0.13908  0.31430  0.78587  1.0000
  C   C198      1.0  0.11305  0.30459  0.75869  1.0000
  O   O193      1.0  0.10595  0.28612  0.70707  1.0000
  O   O194      1.0  0.18643  0.28612  0.70707  1.0000
  O   O195      1.0  0.23588  0.30459  0.75870  1.0000
  O   O196      1.0  0.20486  0.32305  0.81032  1.0000
  O   O197      1.0  0.12438  0.32305  0.81032  1.0000
  O   O198      1.0  0.07493  0.30459  0.75869  1.0000
  C   C199      1.0  0.50683  0.04981  0.61703  1.0000
  C   C200      1.0  0.54918  0.04981  0.61703  1.0000
  C   C201      1.0  0.56550  0.04009  0.58986  1.0000
  C   C202      1.0  0.53947  0.03037  0.56269  1.0000
  C   C203      1.0  0.49712  0.03037  0.56269  1.0000
  C   C204      1.0  0.48080  0.04009  0.58987  1.0000
  O   O199      1.0  0.49214  0.05856  0.64149  1.0000
  O   O200      1.0  0.57262  0.05855  0.64148  1.0000
  O   O201      1.0  0.60362  0.04009  0.58985  1.0000
  O   O202      1.0  0.55416  0.02162  0.53823  1.0000
  O   O203      1.0  0.47368  0.02162  0.53824  1.0000
  O   O204      1.0  0.44268  0.04009  0.58987  1.0000
  C   C205      1.0  0.98124  0.47214  0.56267  1.0000
  C   C206      1.0  0.97153  0.44610  0.58984  1.0000
  C   C207      1.0  0.96181  0.46242  0.61702  1.0000
  C   C208      1.0  0.96180  0.50477  0.61703  1.0000
  C   C209      1.0  0.97151  0.53081  0.58986  1.0000
  C   C210      1.0  0.98123  0.51449  0.56268  1.0000
  O   O205      1.0  0.98999  0.45746  0.53821  1.0000
  O   O206      1.0  0.97153  0.40799  0.58983  1.0000
  O   O207      1.0  0.95306  0.43898  0.64147  1.0000
  O   O208      1.0  0.95305  0.51945  0.64149  1.0000
  O   O209      1.0  0.97151  0.56892  0.58987  1.0000
  O   O210      1.0  0.98997  0.53793  0.53823  1.0000
  C   C211      1.0  0.53951  0.51448  0.56266  1.0000
  C   C212      1.0  0.56556  0.53079  0.58982  1.0000
  C   C213      1.0  0.54926  0.50475  0.61699  1.0000
  C   C214      1.0  0.50690  0.46239  0.61699  1.0000
  C   C215      1.0  0.48085  0.44608  0.58983  1.0000
  C   C216      1.0  0.49716  0.47212  0.56266  1.0000
  O   O211      1.0  0.55419  0.53792  0.53820  1.0000
  O   O212      1.0  0.60368  0.56892  0.58982  1.0000
  O   O213      1.0  0.57270  0.51944  0.64144  1.0000
  O   O214      1.0  0.49223  0.43895  0.64144  1.0000
  O   O215      1.0  0.44273  0.40795  0.58983  1.0000
  O   O216      1.0  0.47371  0.45743  0.53821  1.0000
  Cu  Cu1       1.0  0.33927  0.17236  0.17429  1.0000
  Cu  Cu2       1.0  0.83925  0.17234  0.17426  1.0000
  Cu  Cu3       1.0  0.83925  0.67235  0.17428  1.0000
  Cu  Cu4       1.0  0.17260  0.33900  0.84094  1.0000
  Cu  Cu5       1.0  0.67259  0.83900  0.84094  1.0000
  Cu  Cu6       1.0  0.17259  0.83901  0.84095  1.0000
  Cu  Cu7       1.0  0.00593  0.50568  0.50760  1.0000
  Cu  Cu8       1.0  0.50594  0.50569  0.50761  1.0000
  Cu  Cu9       1.0  0.50593  0.00567  0.50762  1.0000
  Cu  Cu10      1.0  0.50591  0.00566  0.00762  1.0000
  Cu  Cu11      1.0  0.00590  0.50566  0.00760  1.0000
  Cu  Cu12      1.0  0.50591  0.50567  0.00762  1.0000
  Cu  Cu13      1.0  0.17260  0.33904  0.34093  1.0000
  Cu  Cu14      1.0  0.67259  0.83902  0.34094  1.0000
  Cu  Cu15      1.0  0.17259  0.83904  0.34096  1.0000
  Cu  Cu16      1.0  0.83928  0.67235  0.67428  1.0000
  Cu  Cu17      1.0  0.33930  0.17235  0.67429  1.0000
  Cu  Cu18      1.0  0.83929  0.17234  0.67426  1.0000
  Zn  Zn1       1.0  0.29263  0.91300  0.96516  1.0000
  Zn  Zn2       1.0  0.09857  0.38500  0.96517  1.0000
  Zn  Zn3       1.0  0.62656  0.71897  0.96517  1.0000
  Zn  Zn4       1.0  0.91321  0.29237  0.05004  1.0000
  Zn  Zn5       1.0  0.71923  0.62633  0.05004  1.0000
  Zn  Zn6       1.0  0.38528  0.09836  0.05004  1.0000
  Zn  Zn7       1.0  0.71919  0.09833  0.05007  1.0000
  Zn  Zn8       1.0  0.91324  0.62632  0.05004  1.0000
  Zn  Zn9       1.0  0.38525  0.29236  0.05006  1.0000
  Zn  Zn10      1.0  0.09860  0.71896  0.96516  1.0000
  Zn  Zn11      1.0  0.29259  0.38500  0.96519  1.0000
  Zn  Zn12      1.0  0.62654  0.91298  0.96519  1.0000
  Zn  Zn13      1.0  0.95931  0.24636  0.29845  1.0000
  Zn  Zn14      1.0  0.76525  0.71838  0.29852  1.0000
  Zn  Zn15      1.0  0.29326  0.05235  0.29852  1.0000
  Zn  Zn16      1.0  0.57990  0.62574  0.38340  1.0000
  Zn  Zn17      1.0  0.38592  0.95969  0.38339  1.0000
  Zn  Zn18      1.0  0.05194  0.43171  0.38333  1.0000
  Zn  Zn19      1.0  0.38587  0.43171  0.38341  1.0000
  Zn  Zn20      1.0  0.57993  0.95968  0.38336  1.0000
  Zn  Zn21      1.0  0.05192  0.62571  0.38338  1.0000
  Zn  Zn22      1.0  0.76528  0.05231  0.29847  1.0000
  Zn  Zn23      1.0  0.95927  0.71838  0.29851  1.0000
  Zn  Zn24      1.0  0.29324  0.24635  0.29854  1.0000
  Zn  Zn25      1.0  0.62601  0.57968  0.63180  1.0000
  Zn  Zn26      1.0  0.43194  0.05168  0.63186  1.0000
  Zn  Zn27      1.0  0.95996  0.38565  0.63182  1.0000
  Zn  Zn28      1.0  0.24658  0.95906  0.71674  1.0000
  Zn  Zn29      1.0  0.05262  0.29300  0.71669  1.0000
  Zn  Zn30      1.0  0.71865  0.76504  0.71669  1.0000
  Zn  Zn31      1.0  0.05255  0.76501  0.71675  1.0000
  Zn  Zn32      1.0  0.24664  0.29301  0.71671  1.0000
  Zn  Zn33      1.0  0.71862  0.95904  0.71672  1.0000
  Zn  Zn34      1.0  0.43199  0.38564  0.63183  1.0000
  Zn  Zn35      1.0  0.62595  0.05168  0.63185  1.0000
  Zn  Zn36      1.0  0.95992  0.57966  0.63187  1.0000
