data_image0
_chemical_formula_structural       Fe8C7NCNCNC3NCNC11NCNC7NHO2H2O2H2O2H2O2HNiC7NCNCNC3NCNC11NCNC7NHO2H2O2H2O2H2O2HNiC7NCNCNC3NCNC11NCNC7NHO2H2O2H2O2H2O2HNiC7NCNCNC3NCNC11NCNC7NHO2H2O2H2O2H2O2HNiC7NCNCNC3NCNC11NCNC7NHO2H2O2H2O2H2O2HNiC7NCNCNC3NCNC11NCNC7NHO2H2O2H2O2H2O2HNiC6O2HO2HCuC6O2HO2HCuC6O2HO2HCuC6O2HO2HCuC6O2HO2HCuC6O2HO2HCuC6O2HO2HCuC6O2HO2HCuC6O2HO2HCuC6O2HO2HCuC6O2HO2HCuC6O2HO2HCuC6O2HO2HCuC6O2HO2HCuC6O2HO2HCuC6O2HO2HCuC6O2HO2HCuC6O2HO2HCuC6O2HO2HCuC6O2HO2HCuC6O2HO2HCuC6O2HO2HCuC6O2HO2HCuC6O2HO2HCu
_chemical_formula_sum              "Fe8 C336 N48 H96 O144 Ni6 Cu24"
_cell_length_a       50.9774
_cell_length_b       50.9739
_cell_length_c       50.9759
_cell_angle_alpha    89.9962
_cell_angle_beta     90.0025
_cell_angle_gamma    90.0007

_space_group_name_H-M_alt    "P 1"
_space_group_IT_number       1

loop_
  _space_group_symop_operation_xyz
  'x, y, z'

loop_
  _atom_site_type_symbol
  _atom_site_label
  _atom_site_symmetry_multiplicity
  _atom_site_fract_x
  _atom_site_fract_y
  _atom_site_fract_z
  _atom_site_occupancy
  Fe  Fe1       1.0  0.25037  0.25087  0.25039  1.0000
  Fe  Fe2       1.0  0.25034  0.75085  0.75042  1.0000
  Fe  Fe3       1.0  0.75038  0.75088  0.25038  1.0000
  Fe  Fe4       1.0  0.75034  0.25085  0.75038  1.0000
  Fe  Fe5       1.0  0.75035  0.75083  0.75042  1.0000
  Fe  Fe6       1.0  0.75036  0.25085  0.25038  1.0000
  Fe  Fe7       1.0  0.25036  0.25085  0.75037  1.0000
  Fe  Fe8       1.0  0.25037  0.75086  0.25039  1.0000
  C   C1        1.0  0.89888  0.44265  0.25071  1.0000
  C   C2        1.0  0.89118  0.41327  0.25065  1.0000
  C   C3        1.0  0.91276  0.39169  0.25056  1.0000
  C   C4        1.0  0.94214  0.39937  0.25051  1.0000
  C   C5        1.0  0.94881  0.42867  0.25057  1.0000
  C   C6        1.0  0.92817  0.44931  0.25068  1.0000
  C   C7        1.0  0.94193  0.47597  0.25072  1.0000
  N   N1        1.0  0.97177  0.47226  0.25063  1.0000
  C   C8        1.0  0.97547  0.44242  0.25053  1.0000
  N   N2        1.0  0.00010  0.42774  0.25041  1.0000
  C   C9        1.0  0.02525  0.44242  0.25043  1.0000
  N   N3        1.0  0.02895  0.47226  0.25052  1.0000
  C   C10       1.0  0.05879  0.47597  0.25056  1.0000
  C   C11       1.0  0.07255  0.44931  0.25047  1.0000
  C   C12       1.0  0.05191  0.42867  0.25040  1.0000
  N   N4        1.0  0.02895  0.52944  0.25057  1.0000
  C   C13       1.0  0.05879  0.52574  0.25065  1.0000
  N   N5        1.0  0.07347  0.50086  0.25069  1.0000
  C   C14       1.0  0.07255  0.55240  0.25060  1.0000
  C   C15       1.0  0.05190  0.57304  0.25049  1.0000
  C   C16       1.0  0.02525  0.55929  0.25046  1.0000
  C   C17       1.0  0.05859  0.39937  0.25036  1.0000
  C   C18       1.0  0.08797  0.39170  0.25036  1.0000
  C   C19       1.0  0.10954  0.41329  0.25038  1.0000
  C   C20       1.0  0.10184  0.44266  0.25046  1.0000
  C   C21       1.0  0.05857  0.60234  0.25044  1.0000
  C   C22       1.0  0.08794  0.61003  0.25052  1.0000
  C   C23       1.0  0.10952  0.58845  0.25061  1.0000
  C   C24       1.0  0.10184  0.55907  0.25065  1.0000
  N   N6        1.0  0.97177  0.52944  0.25055  1.0000
  C   C25       1.0  0.97548  0.55929  0.25042  1.0000
  N   N7        1.0  0.00010  0.57396  0.25033  1.0000
  C   C26       1.0  0.94883  0.57304  0.25043  1.0000
  C   C27       1.0  0.92818  0.55241  0.25056  1.0000
  C   C28       1.0  0.94193  0.52574  0.25064  1.0000
  C   C29       1.0  0.89889  0.55908  0.25056  1.0000
  C   C30       1.0  0.89121  0.58846  0.25043  1.0000
  C   C31       1.0  0.91280  0.61004  0.25035  1.0000
  C   C32       1.0  0.94218  0.60234  0.25035  1.0000
  N   N8        1.0  0.92726  0.50086  0.25078  1.0000
  H   H1        1.0  0.88455  0.45746  0.25078  1.0000
  O   O1        1.0  0.86657  0.40661  0.25067  1.0000
  O   O2        1.0  0.90608  0.36707  0.25052  1.0000
  H   H2        1.0  0.95694  0.38505  0.25044  1.0000
  H   H3        1.0  0.04380  0.38504  0.25033  1.0000
  O   O3        1.0  0.09465  0.36709  0.25035  1.0000
  O   O4        1.0  0.13416  0.40663  0.25034  1.0000
  H   H4        1.0  0.11616  0.45747  0.25049  1.0000
  H   H5        1.0  0.04376  0.61666  0.25037  1.0000
  O   O5        1.0  0.09461  0.63465  0.25053  1.0000
  O   O6        1.0  0.13414  0.59512  0.25067  1.0000
  H   H6        1.0  0.11617  0.54427  0.25070  1.0000
  H   H7        1.0  0.88456  0.54428  0.25062  1.0000
  O   O7        1.0  0.86660  0.59514  0.25039  1.0000
  O   O8        1.0  0.90614  0.63466  0.25029  1.0000
  H   H8        1.0  0.95699  0.61666  0.25028  1.0000
  Ni  Ni1       1.0  0.00010  0.50085  0.25061  1.0000
  C   C33       1.0  0.10184  0.55905  0.75057  1.0000
  C   C34       1.0  0.10953  0.58843  0.75051  1.0000
  C   C35       1.0  0.08795  0.61002  0.75042  1.0000
  C   C36       1.0  0.05857  0.60233  0.75037  1.0000
  C   C37       1.0  0.05190  0.57304  0.75043  1.0000
  C   C38       1.0  0.07254  0.55239  0.75054  1.0000
  C   C39       1.0  0.05879  0.52574  0.75057  1.0000
  N   N9        1.0  0.02895  0.52944  0.75048  1.0000
  C   C40       1.0  0.02524  0.55928  0.75039  1.0000
  N   N10       1.0  0.00010  0.57396  0.75027  1.0000
  C   C41       1.0  0.97547  0.55929  0.75029  1.0000
  N   N11       1.0  0.97177  0.52944  0.75037  1.0000
  C   C42       1.0  0.94192  0.52573  0.75042  1.0000
  C   C43       1.0  0.92817  0.55239  0.75033  1.0000
  C   C44       1.0  0.94880  0.57304  0.75026  1.0000
  N   N12       1.0  0.97177  0.47226  0.75043  1.0000
  C   C45       1.0  0.94192  0.47596  0.75050  1.0000
  N   N13       1.0  0.92724  0.50085  0.75054  1.0000
  C   C46       1.0  0.92817  0.44930  0.75045  1.0000
  C   C47       1.0  0.94881  0.42866  0.75034  1.0000
  C   C48       1.0  0.97547  0.44242  0.75031  1.0000
  C   C49       1.0  0.94213  0.60233  0.75022  1.0000
  C   C50       1.0  0.91274  0.61000  0.75023  1.0000
  C   C51       1.0  0.89117  0.58841  0.75025  1.0000
  C   C52       1.0  0.89887  0.55904  0.75032  1.0000
  C   C53       1.0  0.94215  0.39936  0.75029  1.0000
  C   C54       1.0  0.91278  0.39167  0.75037  1.0000
  C   C55       1.0  0.89119  0.41325  0.75046  1.0000
  C   C56       1.0  0.89888  0.44263  0.75050  1.0000
  N   N14       1.0  0.02894  0.47226  0.75040  1.0000
  C   C57       1.0  0.02524  0.44242  0.75027  1.0000
  N   N15       1.0  0.00010  0.42774  0.75018  1.0000
  C   C58       1.0  0.05189  0.42866  0.75028  1.0000
  C   C59       1.0  0.07253  0.44930  0.75041  1.0000
  C   C60       1.0  0.05878  0.47596  0.75050  1.0000
  C   C61       1.0  0.10183  0.44263  0.75041  1.0000
  C   C62       1.0  0.10950  0.41324  0.75028  1.0000
  C   C63       1.0  0.08791  0.39166  0.75020  1.0000
  C   C64       1.0  0.05854  0.39936  0.75019  1.0000
  N   N16       1.0  0.07346  0.50085  0.75064  1.0000
  H   H9        1.0  0.11616  0.54425  0.75064  1.0000
  O   O9        1.0  0.13415  0.59510  0.75053  1.0000
  O   O10       1.0  0.09463  0.63463  0.75039  1.0000
  H   H10       1.0  0.04377  0.61666  0.75031  1.0000
  H   H11       1.0  0.95692  0.61666  0.75020  1.0000
  O   O11       1.0  0.90606  0.63462  0.75022  1.0000
  O   O12       1.0  0.86655  0.59507  0.75020  1.0000
  H   H12       1.0  0.88456  0.54423  0.75034  1.0000
  H   H13       1.0  0.95695  0.38504  0.75022  1.0000
  O   O13       1.0  0.90611  0.36706  0.75037  1.0000
  O   O14       1.0  0.86658  0.40658  0.75051  1.0000
  H   H14       1.0  0.88455  0.45743  0.75056  1.0000
  H   H15       1.0  0.11616  0.45742  0.75048  1.0000
  O   O15       1.0  0.13412  0.40656  0.75024  1.0000
  O   O16       1.0  0.09458  0.36705  0.75014  1.0000
  H   H16       1.0  0.04373  0.38505  0.75012  1.0000
  Ni  Ni2       1.0  0.00010  0.50085  0.75047  1.0000
  C   C65       1.0  0.25069  0.94264  0.60188  1.0000
  C   C66       1.0  0.25063  0.91326  0.60958  1.0000
  C   C67       1.0  0.25054  0.89167  0.58800  1.0000
  C   C68       1.0  0.25049  0.89936  0.55862  1.0000
  C   C69       1.0  0.25055  0.92866  0.55195  1.0000
  C   C70       1.0  0.25067  0.94930  0.57259  1.0000
  C   C71       1.0  0.25070  0.97596  0.55883  1.0000
  N   N17       1.0  0.25061  0.97225  0.52899  1.0000
  C   C72       1.0  0.25052  0.94241  0.52529  1.0000
  N   N18       1.0  0.25039  0.92773  0.50040  1.0000
  C   C73       1.0  0.25041  0.94241  0.47551  1.0000
  N   N19       1.0  0.25050  0.97225  0.47181  1.0000
  C   C74       1.0  0.25054  0.97596  0.44196  1.0000
  C   C75       1.0  0.25046  0.94931  0.42821  1.0000
  C   C76       1.0  0.25039  0.92866  0.44885  1.0000
  N   N20       1.0  0.25056  0.02943  0.47180  1.0000
  C   C77       1.0  0.25064  0.02574  0.44196  1.0000
  N   N21       1.0  0.25067  0.00010  0.42728  1.0000
  C   C78       1.0  0.25058  0.05240  0.42821  1.0000
  C   C79       1.0  0.25047  0.07304  0.44885  1.0000
  C   C80       1.0  0.25044  0.05928  0.47551  1.0000
  C   C81       1.0  0.25034  0.89937  0.44217  1.0000
  C   C82       1.0  0.25035  0.89169  0.41279  1.0000
  C   C83       1.0  0.25037  0.91328  0.39121  1.0000
  C   C84       1.0  0.25044  0.94266  0.39891  1.0000
  C   C85       1.0  0.25043  0.10233  0.44219  1.0000
  C   C86       1.0  0.25051  0.11003  0.41281  1.0000
  C   C87       1.0  0.25060  0.08844  0.39123  1.0000
  C   C88       1.0  0.25063  0.05906  0.39891  1.0000
  N   N22       1.0  0.25053  0.02943  0.52898  1.0000
  C   C89       1.0  0.25041  0.05928  0.52528  1.0000
  N   N23       1.0  0.25031  0.07395  0.50039  1.0000
  C   C90       1.0  0.25041  0.07303  0.55193  1.0000
  C   C91       1.0  0.25054  0.05239  0.57257  1.0000
  C   C92       1.0  0.25063  0.02573  0.55882  1.0000
  C   C93       1.0  0.25054  0.05907  0.60187  1.0000
  C   C94       1.0  0.25042  0.08845  0.60954  1.0000
  C   C95       1.0  0.25034  0.11003  0.58795  1.0000
  C   C96       1.0  0.25033  0.10233  0.55858  1.0000
  N   N24       1.0  0.25076  0.00010  0.57350  1.0000
  H   H17       1.0  0.25076  0.95744  0.61621  1.0000
  O   O17       1.0  0.25065  0.90659  0.63420  1.0000
  O   O18       1.0  0.25050  0.86706  0.59468  1.0000
  H   H18       1.0  0.25042  0.88504  0.54382  1.0000
  H   H19       1.0  0.25031  0.88503  0.45696  1.0000
  O   O19       1.0  0.25034  0.86708  0.40610  1.0000
  O   O20       1.0  0.25032  0.90662  0.36659  1.0000
  H   H20       1.0  0.25047  0.95747  0.38459  1.0000
  H   H21       1.0  0.25036  0.11665  0.45699  1.0000
  O   O21       1.0  0.25052  0.13464  0.40614  1.0000
  O   O22       1.0  0.25066  0.09512  0.36661  1.0000
  H   H22       1.0  0.25069  0.04427  0.38458  1.0000
  H   H23       1.0  0.25061  0.04427  0.61620  1.0000
  O   O23       1.0  0.25037  0.09513  0.63416  1.0000
  O   O24       1.0  0.25028  0.13465  0.59462  1.0000
  H   H24       1.0  0.25026  0.11665  0.54377  1.0000
  Ni  Ni3       1.0  0.25059  0.00010  0.50040  1.0000
  C   C97       1.0  0.39887  0.75050  0.94220  1.0000
  C   C98       1.0  0.39117  0.75056  0.91282  1.0000
  C   C99       1.0  0.41275  0.75065  0.89123  1.0000
  C   C100      1.0  0.44213  0.75070  0.89892  1.0000
  C   C101      1.0  0.44880  0.75064  0.92821  1.0000
  C   C102      1.0  0.42816  0.75053  0.94886  1.0000
  C   C103      1.0  0.44192  0.75050  0.97551  1.0000
  N   N25       1.0  0.47176  0.75059  0.97181  1.0000
  C   C104      1.0  0.47546  0.75068  0.94196  1.0000
  N   N26       1.0  0.50035  0.75080  0.92728  1.0000
  C   C105      1.0  0.52524  0.75079  0.94196  1.0000
  N   N27       1.0  0.52894  0.75070  0.97180  1.0000
  C   C106      1.0  0.55878  0.75066  0.97551  1.0000
  C   C107      1.0  0.57254  0.75074  0.94886  1.0000
  C   C108      1.0  0.55190  0.75081  0.92821  1.0000
  N   N28       1.0  0.52895  0.75064  0.02898  1.0000
  C   C109      1.0  0.55879  0.75057  0.02528  1.0000
  N   N29       1.0  0.57346  0.75053  0.00010  1.0000
  C   C110      1.0  0.57254  0.75062  0.05194  1.0000
  C   C111      1.0  0.55190  0.75073  0.07258  1.0000
  C   C112      1.0  0.52524  0.75076  0.05883  1.0000
  C   C113      1.0  0.55858  0.75085  0.89892  1.0000
  C   C114      1.0  0.58796  0.75085  0.89124  1.0000
  C   C115      1.0  0.60953  0.75083  0.91283  1.0000
  C   C116      1.0  0.60183  0.75076  0.94221  1.0000
  C   C117      1.0  0.55856  0.75078  0.10188  1.0000
  C   C118      1.0  0.58794  0.75070  0.10957  1.0000
  C   C119      1.0  0.60952  0.75061  0.08799  1.0000
  C   C120      1.0  0.60183  0.75057  0.05861  1.0000
  N   N30       1.0  0.47177  0.75067  0.02898  1.0000
  C   C121      1.0  0.47548  0.75080  0.05882  1.0000
  N   N31       1.0  0.50036  0.75089  0.07350  1.0000
  C   C122      1.0  0.44883  0.75079  0.07258  1.0000
  C   C123      1.0  0.42818  0.75066  0.05195  1.0000
  C   C124      1.0  0.44193  0.75057  0.02528  1.0000
  C   C125      1.0  0.39889  0.75066  0.05862  1.0000
  C   C126      1.0  0.39121  0.75078  0.08800  1.0000
  C   C127      1.0  0.41280  0.75087  0.10958  1.0000
  C   C128      1.0  0.44218  0.75087  0.10188  1.0000
  N   N32       1.0  0.42725  0.75043  0.00010  1.0000
  H   H25       1.0  0.38455  0.75044  0.95700  1.0000
  O   O25       1.0  0.36656  0.75054  0.90615  1.0000
  O   O26       1.0  0.40607  0.75069  0.86662  1.0000
  H   H26       1.0  0.45693  0.75077  0.88459  1.0000
  H   H27       1.0  0.54379  0.75088  0.88459  1.0000
  O   O27       1.0  0.59464  0.75086  0.86663  1.0000
  O   O28       1.0  0.63415  0.75087  0.90617  1.0000
  H   H28       1.0  0.61615  0.75073  0.95701  1.0000
  H   H29       1.0  0.54376  0.75085  0.11620  1.0000
  O   O29       1.0  0.59461  0.75069  0.13418  1.0000
  O   O30       1.0  0.63413  0.75055  0.09466  1.0000
  H   H30       1.0  0.61616  0.75051  0.04381  1.0000
  H   H31       1.0  0.38456  0.75059  0.04382  1.0000
  O   O31       1.0  0.36660  0.75083  0.09468  1.0000
  O   O32       1.0  0.40614  0.75093  0.13420  1.0000
  H   H32       1.0  0.45699  0.75094  0.11620  1.0000
  Ni  Ni4       1.0  0.50035  0.75061  0.00010  1.0000
  C   C129      1.0  0.75050  0.94263  0.60189  1.0000
  C   C130      1.0  0.75043  0.91325  0.60959  1.0000
  C   C131      1.0  0.75034  0.89167  0.58801  1.0000
  C   C132      1.0  0.75030  0.89936  0.55862  1.0000
  C   C133      1.0  0.75035  0.92865  0.55195  1.0000
  C   C134      1.0  0.75047  0.94930  0.57260  1.0000
  C   C135      1.0  0.75050  0.97595  0.55884  1.0000
  N   N33       1.0  0.75041  0.97225  0.52900  1.0000
  C   C136      1.0  0.75032  0.94240  0.52529  1.0000
  N   N34       1.0  0.75020  0.92773  0.50041  1.0000
  C   C137      1.0  0.75021  0.94240  0.47552  1.0000
  N   N35       1.0  0.75030  0.97225  0.47182  1.0000
  C   C138      1.0  0.75035  0.97596  0.44197  1.0000
  C   C139      1.0  0.75026  0.94930  0.42822  1.0000
  C   C140      1.0  0.75019  0.92865  0.44885  1.0000
  N   N36       1.0  0.75036  0.02943  0.47181  1.0000
  C   C141      1.0  0.75044  0.02573  0.44197  1.0000
  N   N37       1.0  0.75048  0.00010  0.42729  1.0000
  C   C142      1.0  0.75038  0.05239  0.42821  1.0000
  C   C143      1.0  0.75027  0.07303  0.44886  1.0000
  C   C144      1.0  0.75024  0.05927  0.47551  1.0000
  C   C145      1.0  0.75015  0.89936  0.44217  1.0000
  C   C146      1.0  0.75015  0.89169  0.41279  1.0000
  C   C147      1.0  0.75017  0.91328  0.39122  1.0000
  C   C148      1.0  0.75025  0.94266  0.39892  1.0000
  C   C149      1.0  0.75022  0.10233  0.44220  1.0000
  C   C150      1.0  0.75031  0.11002  0.41282  1.0000
  C   C151      1.0  0.75040  0.08844  0.39124  1.0000
  C   C152      1.0  0.75043  0.05906  0.39892  1.0000
  N   N38       1.0  0.75033  0.02943  0.52899  1.0000
  C   C153      1.0  0.75020  0.05927  0.52528  1.0000
  N   N39       1.0  0.75011  0.07395  0.50040  1.0000
  C   C154      1.0  0.75021  0.07303  0.55194  1.0000
  C   C155      1.0  0.75034  0.05239  0.57258  1.0000
  C   C156      1.0  0.75042  0.02573  0.55883  1.0000
  C   C157      1.0  0.75034  0.05906  0.60188  1.0000
  C   C158      1.0  0.75021  0.08844  0.60955  1.0000
  C   C159      1.0  0.75013  0.11002  0.58796  1.0000
  C   C160      1.0  0.75012  0.10232  0.55858  1.0000
  N   N40       1.0  0.75056  0.00010  0.57351  1.0000
  H   H33       1.0  0.75056  0.95744  0.61621  1.0000
  O   O33       1.0  0.75045  0.90658  0.63420  1.0000
  O   O34       1.0  0.75030  0.86705  0.59468  1.0000
  H   H34       1.0  0.75023  0.88503  0.54382  1.0000
  H   H35       1.0  0.75012  0.88503  0.45697  1.0000
  O   O35       1.0  0.75014  0.86708  0.40611  1.0000
  O   O36       1.0  0.75013  0.90662  0.36660  1.0000
  H   H36       1.0  0.75028  0.95746  0.38460  1.0000
  H   H37       1.0  0.75015  0.11665  0.45700  1.0000
  O   O37       1.0  0.75031  0.13464  0.40615  1.0000
  O   O38       1.0  0.75045  0.09512  0.36662  1.0000
  H   H38       1.0  0.75049  0.04426  0.38459  1.0000
  H   H39       1.0  0.75040  0.04426  0.61621  1.0000
  O   O39       1.0  0.75017  0.09512  0.63416  1.0000
  O   O40       1.0  0.75007  0.13464  0.59463  1.0000
  H   H40       1.0  0.75006  0.11664  0.54378  1.0000
  Ni  Ni5       1.0  0.75039  0.00010  0.50041  1.0000
  C   C161      1.0  0.39887  0.25119  0.05859  1.0000
  C   C162      1.0  0.39117  0.25113  0.08797  1.0000
  C   C163      1.0  0.41276  0.25103  0.10955  1.0000
  C   C164      1.0  0.44214  0.25099  0.10187  1.0000
  C   C165      1.0  0.44881  0.25104  0.07257  1.0000
  C   C166      1.0  0.42816  0.25116  0.05193  1.0000
  C   C167      1.0  0.44192  0.25119  0.02528  1.0000
  N   N41       1.0  0.47176  0.25110  0.02898  1.0000
  C   C168      1.0  0.47546  0.25101  0.05882  1.0000
  N   N42       1.0  0.50035  0.25088  0.07350  1.0000
  C   C169      1.0  0.52524  0.25090  0.05883  1.0000
  N   N43       1.0  0.52894  0.25099  0.02898  1.0000
  C   C170      1.0  0.55878  0.25103  0.02528  1.0000
  C   C171      1.0  0.57254  0.25094  0.05193  1.0000
  C   C172      1.0  0.55190  0.25087  0.07258  1.0000
  N   N44       1.0  0.52894  0.25104  0.97180  1.0000
  C   C173      1.0  0.55878  0.25112  0.97550  1.0000
  N   N45       1.0  0.57346  0.25116  0.00010  1.0000
  C   C174      1.0  0.57253  0.25107  0.94884  1.0000
  C   C175      1.0  0.55189  0.25095  0.92820  1.0000
  C   C176      1.0  0.52524  0.25092  0.94196  1.0000
  C   C177      1.0  0.55858  0.25083  0.10187  1.0000
  C   C178      1.0  0.58797  0.25083  0.10954  1.0000
  C   C179      1.0  0.60954  0.25085  0.08795  1.0000
  C   C180      1.0  0.60183  0.25093  0.05858  1.0000
  C   C181      1.0  0.55855  0.25091  0.89891  1.0000
  C   C182      1.0  0.58792  0.25099  0.89122  1.0000
  C   C183      1.0  0.60951  0.25108  0.91280  1.0000
  C   C184      1.0  0.60183  0.25111  0.94218  1.0000
  N   N46       1.0  0.47176  0.25102  0.97180  1.0000
  C   C185      1.0  0.47547  0.25089  0.94196  1.0000
  N   N47       1.0  0.50035  0.25080  0.92728  1.0000
  C   C186      1.0  0.44881  0.25090  0.92820  1.0000
  C   C187      1.0  0.42817  0.25103  0.94884  1.0000
  C   C188      1.0  0.44192  0.25112  0.97550  1.0000
  C   C189      1.0  0.39888  0.25103  0.94217  1.0000
  C   C190      1.0  0.39120  0.25091  0.91278  1.0000
  C   C191      1.0  0.41279  0.25083  0.89121  1.0000
  C   C192      1.0  0.44216  0.25082  0.89891  1.0000
  N   N48       1.0  0.42725  0.25125  0.00010  1.0000
  H   H41       1.0  0.38455  0.25125  0.04379  1.0000
  O   O41       1.0  0.36656  0.25115  0.09464  1.0000
  O   O42       1.0  0.40608  0.25100  0.13417  1.0000
  H   H42       1.0  0.45694  0.25092  0.11619  1.0000
  H   H43       1.0  0.54379  0.25080  0.11620  1.0000
  O   O43       1.0  0.59465  0.25082  0.13416  1.0000
  O   O44       1.0  0.63416  0.25081  0.09461  1.0000
  H   H44       1.0  0.61615  0.25095  0.04377  1.0000
  H   H45       1.0  0.54375  0.25084  0.88459  1.0000
  O   O45       1.0  0.59459  0.25099  0.86660  1.0000
  O   O46       1.0  0.63412  0.25113  0.90613  1.0000
  H   H46       1.0  0.61615  0.25117  0.95697  1.0000
  H   H47       1.0  0.38455  0.25110  0.95696  1.0000
  O   O47       1.0  0.36659  0.25086  0.90610  1.0000
  O   O48       1.0  0.40612  0.25076  0.86659  1.0000
  H   H48       1.0  0.45697  0.25075  0.88459  1.0000
  Ni  Ni6       1.0  0.50035  0.25108  0.00010  1.0000
  C   C193      1.0  0.20177  0.27818  0.25039  1.0000
  C   C194      1.0  0.22313  0.29952  0.25039  1.0000
  C   C195      1.0  0.21535  0.32870  0.25038  1.0000
  C   C196      1.0  0.18620  0.33661  0.25037  1.0000
  C   C197      1.0  0.16476  0.31522  0.25037  1.0000
  C   C198      1.0  0.17261  0.28605  0.25038  1.0000
  O   O49       1.0  0.20940  0.24956  0.25040  1.0000
  O   O50       1.0  0.25171  0.29181  0.25039  1.0000
  H   H49       1.0  0.23120  0.34446  0.25038  1.0000
  O   O51       1.0  0.17866  0.36529  0.25036  1.0000
  O   O52       1.0  0.13608  0.32283  0.25037  1.0000
  H   H50       1.0  0.15680  0.27026  0.25038  1.0000
  Cu  Cu1       1.0  0.13571  0.36583  0.25036  1.0000
  C   C199      1.0  0.20175  0.72354  0.75042  1.0000
  C   C200      1.0  0.22310  0.70220  0.75042  1.0000
  C   C201      1.0  0.21533  0.67303  0.75043  1.0000
  C   C202      1.0  0.18618  0.66512  0.75044  1.0000
  C   C203      1.0  0.16474  0.68650  0.75044  1.0000
  C   C204      1.0  0.17259  0.71567  0.75043  1.0000
  O   O53       1.0  0.20937  0.75217  0.75041  1.0000
  O   O54       1.0  0.25169  0.70992  0.75042  1.0000
  H   H51       1.0  0.23117  0.65727  0.75043  1.0000
  O   O55       1.0  0.17864  0.63643  0.75045  1.0000
  O   O56       1.0  0.13605  0.67889  0.75044  1.0000
  H   H52       1.0  0.15677  0.73146  0.75043  1.0000
  Cu  Cu2       1.0  0.13569  0.63589  0.75045  1.0000
  C   C205      1.0  0.77770  0.70228  0.25037  1.0000
  C   C206      1.0  0.79904  0.72363  0.25037  1.0000
  C   C207      1.0  0.82821  0.71586  0.25037  1.0000
  C   C208      1.0  0.83612  0.68671  0.25036  1.0000
  C   C209      1.0  0.81474  0.66526  0.25036  1.0000
  C   C210      1.0  0.78557  0.67312  0.25037  1.0000
  O   O57       1.0  0.74908  0.70991  0.25038  1.0000
  O   O58       1.0  0.79133  0.75223  0.25038  1.0000
  H   H53       1.0  0.84397  0.73170  0.25037  1.0000
  O   O59       1.0  0.86481  0.67917  0.25035  1.0000
  O   O60       1.0  0.82235  0.63658  0.25036  1.0000
  H   H54       1.0  0.76978  0.65730  0.25037  1.0000
  Cu  Cu3       1.0  0.86534  0.63621  0.25035  1.0000
  C   C211      1.0  0.79895  0.27816  0.75039  1.0000
  C   C212      1.0  0.77760  0.29950  0.75039  1.0000
  C   C213      1.0  0.78538  0.32868  0.75040  1.0000
  C   C214      1.0  0.81453  0.33658  0.75041  1.0000
  C   C215      1.0  0.83597  0.31519  0.75041  1.0000
  C   C216      1.0  0.82811  0.28602  0.75040  1.0000
  O   O61       1.0  0.79131  0.24954  0.75038  1.0000
  O   O62       1.0  0.74901  0.29180  0.75038  1.0000
  H   H55       1.0  0.76954  0.34444  0.75040  1.0000
  O   O63       1.0  0.82208  0.36527  0.75042  1.0000
  O   O64       1.0  0.86465  0.32279  0.75042  1.0000
  H   H56       1.0  0.84392  0.27022  0.75040  1.0000
  Cu  Cu4       1.0  0.86503  0.36579  0.75043  1.0000
  C   C217      1.0  0.25041  0.20226  0.27771  1.0000
  C   C218      1.0  0.25041  0.22362  0.29904  1.0000
  C   C219      1.0  0.25044  0.21584  0.32822  1.0000
  C   C220      1.0  0.25048  0.18669  0.33613  1.0000
  C   C221      1.0  0.25047  0.16524  0.31474  1.0000
  C   C222      1.0  0.25044  0.17310  0.28557  1.0000
  O   O65       1.0  0.25037  0.20989  0.24908  1.0000
  O   O66       1.0  0.25038  0.25221  0.29133  1.0000
  H   H57       1.0  0.25044  0.23168  0.34398  1.0000
  O   O67       1.0  0.25051  0.17914  0.36481  1.0000
  O   O68       1.0  0.25051  0.13656  0.32235  1.0000
  H   H58       1.0  0.25044  0.15729  0.26978  1.0000
  Cu  Cu5       1.0  0.25055  0.13619  0.36535  1.0000
  C   C223      1.0  0.27765  0.75081  0.79902  1.0000
  C   C224      1.0  0.29899  0.75081  0.77766  1.0000
  C   C225      1.0  0.32816  0.75077  0.78544  1.0000
  C   C226      1.0  0.33607  0.75074  0.81459  1.0000
  C   C227      1.0  0.31469  0.75074  0.83603  1.0000
  C   C228      1.0  0.28552  0.75077  0.82818  1.0000
  O   O69       1.0  0.24903  0.75085  0.79139  1.0000
  O   O70       1.0  0.29127  0.75085  0.74907  1.0000
  H   H59       1.0  0.34392  0.75077  0.76959  1.0000
  O   O71       1.0  0.36476  0.75070  0.82213  1.0000
  O   O72       1.0  0.32230  0.75070  0.86472  1.0000
  H   H60       1.0  0.26973  0.75077  0.84399  1.0000
  Cu  Cu6       1.0  0.36529  0.75065  0.86509  1.0000
  C   C229      1.0  0.75034  0.77819  0.29897  1.0000
  C   C230      1.0  0.75034  0.79953  0.27762  1.0000
  C   C231      1.0  0.75030  0.82871  0.28540  1.0000
  C   C232      1.0  0.75026  0.83661  0.31455  1.0000
  C   C233      1.0  0.75026  0.81522  0.33599  1.0000
  C   C234      1.0  0.75030  0.78605  0.32813  1.0000
  O   O73       1.0  0.75038  0.74957  0.29134  1.0000
  O   O74       1.0  0.75037  0.79182  0.24903  1.0000
  H   H61       1.0  0.75029  0.84447  0.26956  1.0000
  O   O75       1.0  0.75022  0.86530  0.32209  1.0000
  O   O76       1.0  0.75023  0.82283  0.36468  1.0000
  H   H62       1.0  0.75031  0.77026  0.34395  1.0000
  Cu  Cu7       1.0  0.75018  0.86583  0.36505  1.0000
  C   C235      1.0  0.72302  0.25089  0.79899  1.0000
  C   C236      1.0  0.70169  0.25089  0.77763  1.0000
  C   C237      1.0  0.67251  0.25092  0.78541  1.0000
  C   C238      1.0  0.66461  0.25096  0.81456  1.0000
  C   C239      1.0  0.68599  0.25095  0.83600  1.0000
  C   C240      1.0  0.71516  0.25092  0.82815  1.0000
  O   O77       1.0  0.75165  0.25085  0.79136  1.0000
  O   O78       1.0  0.70940  0.25086  0.74904  1.0000
  H   H63       1.0  0.65675  0.25093  0.76957  1.0000
  O   O79       1.0  0.63592  0.25099  0.82210  1.0000
  O   O80       1.0  0.67838  0.25098  0.86469  1.0000
  H   H64       1.0  0.73095  0.25092  0.84396  1.0000
  Cu  Cu8       1.0  0.63539  0.25103  0.86506  1.0000
  C   C241      1.0  0.25039  0.79945  0.72311  1.0000
  C   C242      1.0  0.25038  0.77810  0.70177  1.0000
  C   C243      1.0  0.25042  0.78587  0.67260  1.0000
  C   C244      1.0  0.25046  0.81502  0.66469  1.0000
  C   C245      1.0  0.25046  0.83647  0.68607  1.0000
  C   C246      1.0  0.25042  0.82861  0.71524  1.0000
  O   O81       1.0  0.25035  0.79183  0.75173  1.0000
  O   O82       1.0  0.25035  0.74951  0.70949  1.0000
  H   H65       1.0  0.25042  0.77003  0.65684  1.0000
  O   O83       1.0  0.25049  0.82257  0.63600  1.0000
  O   O84       1.0  0.25049  0.86515  0.67846  1.0000
  H   H66       1.0  0.25042  0.84443  0.73103  1.0000
  Cu  Cu9       1.0  0.25053  0.86552  0.63546  1.0000
  C   C247      1.0  0.70178  0.75083  0.22307  1.0000
  C   C248      1.0  0.72313  0.75084  0.20172  1.0000
  C   C249      1.0  0.71534  0.75080  0.17255  1.0000
  C   C250      1.0  0.68619  0.75076  0.16465  1.0000
  C   C251      1.0  0.66475  0.75075  0.18604  1.0000
  C   C252      1.0  0.67262  0.75079  0.21521  1.0000
  O   O85       1.0  0.70942  0.75087  0.25169  1.0000
  O   O86       1.0  0.75172  0.75088  0.20943  1.0000
  H   H67       1.0  0.73118  0.75080  0.15679  1.0000
  O   O87       1.0  0.67864  0.75072  0.13597  1.0000
  O   O88       1.0  0.63607  0.75071  0.17844  1.0000
  H   H68       1.0  0.65681  0.75079  0.23100  1.0000
  Cu  Cu10      1.0  0.63568  0.75067  0.13544  1.0000
  C   C253      1.0  0.75030  0.20225  0.72307  1.0000
  C   C254      1.0  0.75030  0.22361  0.70173  1.0000
  C   C255      1.0  0.75027  0.21583  0.67256  1.0000
  C   C256      1.0  0.75023  0.18668  0.66465  1.0000
  C   C257      1.0  0.75023  0.16524  0.68603  1.0000
  C   C258      1.0  0.75026  0.17309  0.71520  1.0000
  O   O89       1.0  0.75033  0.20987  0.75169  1.0000
  O   O90       1.0  0.75034  0.25220  0.70945  1.0000
  H   H69       1.0  0.75027  0.23168  0.65680  1.0000
  O   O91       1.0  0.75020  0.17914  0.63596  1.0000
  O   O92       1.0  0.75020  0.13655  0.67842  1.0000
  H   H70       1.0  0.75026  0.15727  0.73099  1.0000
  Cu  Cu11      1.0  0.75016  0.13619  0.63542  1.0000
  C   C259      1.0  0.27767  0.25091  0.20179  1.0000
  C   C260      1.0  0.29901  0.25090  0.22314  1.0000
  C   C261      1.0  0.32818  0.25094  0.21536  1.0000
  C   C262      1.0  0.33609  0.25097  0.18621  1.0000
  C   C263      1.0  0.31470  0.25097  0.16477  1.0000
  C   C264      1.0  0.28553  0.25094  0.17263  1.0000
  O   O93       1.0  0.24905  0.25087  0.20942  1.0000
  O   O94       1.0  0.29131  0.25087  0.25173  1.0000
  H   H71       1.0  0.34395  0.25094  0.23120  1.0000
  O   O95       1.0  0.36477  0.25100  0.17866  1.0000
  O   O96       1.0  0.32230  0.25100  0.13608  1.0000
  H   H72       1.0  0.26974  0.25094  0.15682  1.0000
  Cu  Cu12      1.0  0.36530  0.25104  0.13571  1.0000
  C   C265      1.0  0.79895  0.72352  0.75038  1.0000
  C   C266      1.0  0.77759  0.70218  0.75039  1.0000
  C   C267      1.0  0.78536  0.67301  0.75035  1.0000
  C   C268      1.0  0.81451  0.66510  0.75032  1.0000
  C   C269      1.0  0.83596  0.68648  0.75032  1.0000
  C   C270      1.0  0.82811  0.71565  0.75035  1.0000
  O   O97       1.0  0.79132  0.75215  0.75042  1.0000
  O   O98       1.0  0.74900  0.70990  0.75042  1.0000
  H   H73       1.0  0.76952  0.65725  0.75035  1.0000
  O   O99       1.0  0.82205  0.63641  0.75029  1.0000
  O   O100      1.0  0.86464  0.67887  0.75029  1.0000
  H   H74       1.0  0.84392  0.73144  0.75035  1.0000
  Cu  Cu13      1.0  0.86501  0.63587  0.75025  1.0000
  C   C271      1.0  0.79896  0.27817  0.25042  1.0000
  C   C272      1.0  0.77761  0.29950  0.25042  1.0000
  C   C273      1.0  0.78538  0.32868  0.25045  1.0000
  C   C274      1.0  0.81453  0.33659  0.25049  1.0000
  C   C275      1.0  0.83597  0.31521  0.25049  1.0000
  C   C276      1.0  0.82812  0.28603  0.25046  1.0000
  O   O101      1.0  0.79133  0.24954  0.25039  1.0000
  O   O102      1.0  0.74902  0.29179  0.25039  1.0000
  H   H75       1.0  0.76954  0.34444  0.25045  1.0000
  O   O103      1.0  0.82207  0.36528  0.25052  1.0000
  O   O104      1.0  0.86466  0.32282  0.25052  1.0000
  H   H76       1.0  0.84393  0.27024  0.25046  1.0000
  Cu  Cu14      1.0  0.86502  0.36581  0.25056  1.0000
  C   C277      1.0  0.22303  0.29945  0.75034  1.0000
  C   C278      1.0  0.20170  0.27809  0.75034  1.0000
  C   C279      1.0  0.17252  0.28586  0.75031  1.0000
  C   C280      1.0  0.16461  0.31501  0.75028  1.0000
  C   C281      1.0  0.18599  0.33646  0.75028  1.0000
  C   C282      1.0  0.21516  0.32861  0.75031  1.0000
  O   O105      1.0  0.25166  0.29183  0.75037  1.0000
  O   O106      1.0  0.20942  0.24950  0.75037  1.0000
  H   H77       1.0  0.15677  0.27001  0.75031  1.0000
  O   O107      1.0  0.13592  0.32255  0.75026  1.0000
  O   O108      1.0  0.17837  0.36514  0.75026  1.0000
  H   H78       1.0  0.23095  0.34443  0.75031  1.0000
  Cu  Cu15      1.0  0.13538  0.36550  0.75022  1.0000
  C   C283      1.0  0.20176  0.72355  0.25042  1.0000
  C   C284      1.0  0.22311  0.70221  0.25043  1.0000
  C   C285      1.0  0.21533  0.67304  0.25046  1.0000
  C   C286      1.0  0.18618  0.66513  0.25049  1.0000
  C   C287      1.0  0.16474  0.68652  0.25049  1.0000
  C   C288      1.0  0.17260  0.71569  0.25045  1.0000
  O   O109      1.0  0.20939  0.75217  0.25039  1.0000
  O   O110      1.0  0.25170  0.70992  0.25039  1.0000
  H   H79       1.0  0.23117  0.65727  0.25046  1.0000
  O   O111      1.0  0.17864  0.63644  0.25052  1.0000
  O   O112      1.0  0.13606  0.67891  0.25052  1.0000
  H   H80       1.0  0.15679  0.73148  0.25045  1.0000
  Cu  Cu16      1.0  0.13568  0.63591  0.25056  1.0000
  C   C289      1.0  0.75035  0.79944  0.72311  1.0000
  C   C290      1.0  0.75035  0.77808  0.70177  1.0000
  C   C291      1.0  0.75035  0.78586  0.67260  1.0000
  C   C292      1.0  0.75036  0.81501  0.66469  1.0000
  C   C293      1.0  0.75036  0.83646  0.68607  1.0000
  C   C294      1.0  0.75036  0.82860  0.71524  1.0000
  O   O113      1.0  0.75035  0.79181  0.75173  1.0000
  O   O114      1.0  0.75034  0.74949  0.70949  1.0000
  H   H81       1.0  0.75035  0.77002  0.65684  1.0000
  O   O115      1.0  0.75037  0.82256  0.63600  1.0000
  O   O116      1.0  0.75037  0.86514  0.67846  1.0000
  H   H82       1.0  0.75036  0.84441  0.73104  1.0000
  Cu  Cu17      1.0  0.75037  0.86551  0.63547  1.0000
  C   C295      1.0  0.72305  0.25085  0.20178  1.0000
  C   C296      1.0  0.70171  0.25085  0.22313  1.0000
  C   C297      1.0  0.67254  0.25085  0.21535  1.0000
  C   C298      1.0  0.66464  0.25084  0.18620  1.0000
  C   C299      1.0  0.68602  0.25084  0.16476  1.0000
  C   C300      1.0  0.71519  0.25084  0.17262  1.0000
  O   O117      1.0  0.75167  0.25086  0.20941  1.0000
  O   O118      1.0  0.70942  0.25086  0.25172  1.0000
  H   H83       1.0  0.65678  0.25085  0.23119  1.0000
  O   O119      1.0  0.63595  0.25083  0.17865  1.0000
  O   O120      1.0  0.67842  0.25083  0.13607  1.0000
  H   H84       1.0  0.73099  0.25084  0.15681  1.0000
  Cu  Cu18      1.0  0.63543  0.25082  0.13569  1.0000
  C   C301      1.0  0.25035  0.22354  0.70177  1.0000
  C   C302      1.0  0.25036  0.20220  0.72313  1.0000
  C   C303      1.0  0.25035  0.17303  0.71535  1.0000
  C   C304      1.0  0.25035  0.16512  0.68620  1.0000
  C   C305      1.0  0.25034  0.18651  0.66475  1.0000
  C   C306      1.0  0.25035  0.21568  0.67261  1.0000
  O   O121      1.0  0.25036  0.25216  0.70941  1.0000
  O   O122      1.0  0.25037  0.20991  0.75172  1.0000
  H   H85       1.0  0.25036  0.15726  0.73119  1.0000
  O   O123      1.0  0.25034  0.13644  0.67865  1.0000
  O   O124      1.0  0.25034  0.17891  0.63607  1.0000
  H   H86       1.0  0.25034  0.23148  0.65680  1.0000
  Cu  Cu19      1.0  0.25033  0.13591  0.63569  1.0000
  C   C307      1.0  0.27769  0.75086  0.20179  1.0000
  C   C308      1.0  0.29902  0.75086  0.22315  1.0000
  C   C309      1.0  0.32819  0.75086  0.21538  1.0000
  C   C310      1.0  0.33611  0.75087  0.18623  1.0000
  C   C311      1.0  0.31473  0.75087  0.16478  1.0000
  C   C312      1.0  0.28556  0.75086  0.17263  1.0000
  O   O125      1.0  0.24906  0.75086  0.20941  1.0000
  O   O126      1.0  0.29130  0.75085  0.25174  1.0000
  H   H87       1.0  0.34395  0.75086  0.23123  1.0000
  O   O127      1.0  0.36480  0.75087  0.17869  1.0000
  O   O128      1.0  0.32234  0.75087  0.13610  1.0000
  H   H88       1.0  0.26977  0.75087  0.15681  1.0000
  Cu  Cu20      1.0  0.36534  0.75087  0.13574  1.0000
  C   C313      1.0  0.75036  0.20225  0.27770  1.0000
  C   C314      1.0  0.75036  0.22360  0.29904  1.0000
  C   C315      1.0  0.75036  0.21583  0.32821  1.0000
  C   C316      1.0  0.75037  0.18668  0.33613  1.0000
  C   C317      1.0  0.75037  0.16523  0.31475  1.0000
  C   C318      1.0  0.75036  0.17309  0.28558  1.0000
  O   O129      1.0  0.75035  0.20987  0.24908  1.0000
  O   O130      1.0  0.75036  0.25220  0.29132  1.0000
  H   H89       1.0  0.75036  0.23168  0.34397  1.0000
  O   O131      1.0  0.75037  0.17914  0.36481  1.0000
  O   O132      1.0  0.75037  0.13655  0.32236  1.0000
  H   H90       1.0  0.75036  0.15727  0.26978  1.0000
  Cu  Cu21      1.0  0.75038  0.13618  0.36536  1.0000
  C   C319      1.0  0.29896  0.25085  0.77769  1.0000
  C   C320      1.0  0.27761  0.25085  0.79903  1.0000
  C   C321      1.0  0.28539  0.25084  0.82820  1.0000
  C   C322      1.0  0.31454  0.25083  0.83611  1.0000
  C   C323      1.0  0.33598  0.25084  0.81472  1.0000
  C   C324      1.0  0.32812  0.25085  0.78555  1.0000
  O   O133      1.0  0.29133  0.25086  0.74907  1.0000
  O   O134      1.0  0.24902  0.25085  0.79132  1.0000
  H   H91       1.0  0.26955  0.25084  0.84396  1.0000
  O   O135      1.0  0.32209  0.25083  0.86479  1.0000
  O   O136      1.0  0.36467  0.25083  0.82233  1.0000
  H   H92       1.0  0.34393  0.25085  0.76976  1.0000
  Cu  Cu22      1.0  0.36504  0.25082  0.86532  1.0000
  C   C325      1.0  0.25037  0.79947  0.27769  1.0000
  C   C326      1.0  0.25037  0.77811  0.29904  1.0000
  C   C327      1.0  0.25036  0.78589  0.32821  1.0000
  C   C328      1.0  0.25035  0.81504  0.33611  1.0000
  C   C329      1.0  0.25035  0.83649  0.31473  1.0000
  C   C330      1.0  0.25036  0.82863  0.28556  1.0000
  O   O137      1.0  0.25038  0.79184  0.24907  1.0000
  O   O138      1.0  0.25037  0.74952  0.29133  1.0000
  H   H93       1.0  0.25036  0.77005  0.34397  1.0000
  O   O139      1.0  0.25034  0.82259  0.36480  1.0000
  O   O140      1.0  0.25035  0.86517  0.32233  1.0000
  H   H94       1.0  0.25036  0.84444  0.26976  1.0000
  Cu  Cu23      1.0  0.25034  0.86554  0.36533  1.0000
  C   C331      1.0  0.72305  0.75083  0.79902  1.0000
  C   C332      1.0  0.70171  0.75083  0.77767  1.0000
  C   C333      1.0  0.67254  0.75084  0.78545  1.0000
  C   C334      1.0  0.66463  0.75085  0.81460  1.0000
  C   C335      1.0  0.68602  0.75085  0.83604  1.0000
  C   C336      1.0  0.71519  0.75084  0.82818  1.0000
  O   O141      1.0  0.75167  0.75083  0.79139  1.0000
  O   O142      1.0  0.70942  0.75083  0.74908  1.0000
  H   H95       1.0  0.65677  0.75084  0.76961  1.0000
  O   O143      1.0  0.63595  0.75085  0.82214  1.0000
  O   O144      1.0  0.67841  0.75085  0.86472  1.0000
  H   H96       1.0  0.73098  0.75084  0.84399  1.0000
  Cu  Cu24      1.0  0.63542  0.75086  0.86510  1.0000
