data_image0
_chemical_formula_structural       Fe8C7NCNCNC3NCNC11NCNC7NHO2H2O2H2O2H2O2HNiC7NCNCNC3NCNC11NCNC7NHO2H2O2H2O2H2O2HNiC7NCNCNC3NCNC11NCNC7NHO2H2O2H2O2H2O2HNiC7NCNCNC3NCNC11NCNC7NHO2H2O2H2O2H2O2HNiC7NCNCNC3NCNC11NCNC7NHO2H2O2H2O2H2O2HNiC7NCNCNC3NCNC11NCNC7NHO2H2O2H2O2H2O2HNi
_chemical_formula_sum              "Fe8 C192 N48 H48 O48 Ni6"
_cell_length_a       27.3189
_cell_length_b       27.3164
_cell_length_c       27.3178
_cell_angle_alpha    89.9914
_cell_angle_beta     90.0018
_cell_angle_gamma    90.0022

_space_group_name_H-M_alt    "P 1"
_space_group_IT_number       1

loop_
  _space_group_symop_operation_xyz
  'x, y, z'

loop_
  _atom_site_type_symbol
  _atom_site_label
  _atom_site_symmetry_multiplicity
  _atom_site_fract_x
  _atom_site_fract_y
  _atom_site_fract_z
  _atom_site_occupancy
  Fe  Fe1       1.0  0.25080  0.25201  0.25110  1.0000
  Fe  Fe2       1.0  0.25077  0.75199  0.75116  1.0000
  Fe  Fe3       1.0  0.75081  0.75199  0.25109  1.0000
  Fe  Fe4       1.0  0.75078  0.25194  0.75109  1.0000
  Fe  Fe5       1.0  0.75078  0.75193  0.75112  1.0000
  Fe  Fe6       1.0  0.75079  0.25198  0.25109  1.0000
  Fe  Fe7       1.0  0.25080  0.25196  0.75107  1.0000
  Fe  Fe8       1.0  0.25080  0.75198  0.25109  1.0000
  C   C1        1.0  0.81142  0.39337  0.25163  1.0000
  C   C2        1.0  0.79706  0.33854  0.25151  1.0000
  C   C3        1.0  0.83733  0.29826  0.25133  1.0000
  C   C4        1.0  0.89216  0.31261  0.25125  1.0000
  C   C5        1.0  0.90460  0.36727  0.25135  1.0000
  C   C6        1.0  0.86608  0.40580  0.25157  1.0000
  C   C7        1.0  0.89175  0.45554  0.25163  1.0000
  N   N1        1.0  0.94744  0.44862  0.25146  1.0000
  C   C8        1.0  0.95434  0.39293  0.25129  1.0000
  N   N2        1.0  0.00010  0.36554  0.25106  1.0000
  C   C9        1.0  0.04723  0.39293  0.25109  1.0000
  N   N3        1.0  0.05413  0.44862  0.25126  1.0000
  C   C10       1.0  0.10982  0.45554  0.25134  1.0000
  C   C11       1.0  0.13549  0.40581  0.25117  1.0000
  C   C12       1.0  0.09698  0.36727  0.25104  1.0000
  N   N4        1.0  0.05414  0.55533  0.25136  1.0000
  C   C13       1.0  0.10983  0.54843  0.25151  1.0000
  N   N5        1.0  0.13721  0.50199  0.25158  1.0000
  C   C14       1.0  0.13549  0.59817  0.25141  1.0000
  C   C15       1.0  0.09697  0.63669  0.25120  1.0000
  C   C16       1.0  0.04723  0.61102  0.25114  1.0000
  C   C17       1.0  0.10944  0.31261  0.25096  1.0000
  C   C18       1.0  0.16427  0.29829  0.25097  1.0000
  C   C19       1.0  0.20453  0.33858  0.25101  1.0000
  C   C20       1.0  0.19015  0.39340  0.25115  1.0000
  C   C21       1.0  0.10940  0.69136  0.25112  1.0000
  C   C22       1.0  0.16421  0.70571  0.25127  1.0000
  C   C23       1.0  0.20449  0.66544  0.25144  1.0000
  C   C24       1.0  0.19015  0.61062  0.25150  1.0000
  N   N6        1.0  0.94745  0.55533  0.25131  1.0000
  C   C25       1.0  0.95436  0.61101  0.25108  1.0000
  N   N7        1.0  0.00010  0.63840  0.25091  1.0000
  C   C26       1.0  0.90463  0.63669  0.25109  1.0000
  C   C27       1.0  0.86610  0.59817  0.25134  1.0000
  C   C28       1.0  0.89176  0.54842  0.25150  1.0000
  C   C29       1.0  0.81145  0.61062  0.25133  1.0000
  C   C30       1.0  0.79712  0.66546  0.25110  1.0000
  C   C31       1.0  0.83741  0.70573  0.25095  1.0000
  C   C32       1.0  0.89222  0.69136  0.25094  1.0000
  N   N8        1.0  0.86437  0.50198  0.25175  1.0000
  H   H1        1.0  0.78469  0.42099  0.25174  1.0000
  O   O1        1.0  0.75113  0.32610  0.25155  1.0000
  O   O2        1.0  0.82487  0.25233  0.25126  1.0000
  H   H2        1.0  0.91977  0.28587  0.25112  1.0000
  H   H3        1.0  0.08184  0.28586  0.25091  1.0000
  O   O3        1.0  0.17674  0.25236  0.25095  1.0000
  O   O4        1.0  0.25046  0.32616  0.25093  1.0000
  H   H4        1.0  0.21687  0.42103  0.25120  1.0000
  H   H5        1.0  0.08178  0.71809  0.25098  1.0000
  O   O5        1.0  0.17666  0.75165  0.25128  1.0000
  O   O6        1.0  0.25042  0.67790  0.25154  1.0000
  H   H6        1.0  0.21689  0.58300  0.25161  1.0000
  H   H7        1.0  0.78471  0.58301  0.25146  1.0000
  O   O7        1.0  0.75119  0.67792  0.25102  1.0000
  O   O8        1.0  0.82497  0.75166  0.25084  1.0000
  H   H8        1.0  0.91985  0.71808  0.25081  1.0000
  Ni  Ni1       1.0  0.00010  0.50197  0.25143  1.0000
  C   C33       1.0  0.19016  0.61058  0.75150  1.0000
  C   C34       1.0  0.20452  0.66540  0.75139  1.0000
  C   C35       1.0  0.16424  0.70568  0.75122  1.0000
  C   C36       1.0  0.10942  0.69133  0.75113  1.0000
  C   C37       1.0  0.09698  0.63667  0.75123  1.0000
  C   C38       1.0  0.13549  0.59815  0.75144  1.0000
  C   C39       1.0  0.10983  0.54840  0.75149  1.0000
  N   N9        1.0  0.05414  0.55531  0.75132  1.0000
  C   C40       1.0  0.04723  0.61100  0.75116  1.0000
  N   N10       1.0  0.00010  0.63839  0.75093  1.0000
  C   C41       1.0  0.95435  0.61100  0.75095  1.0000
  N   N11       1.0  0.94745  0.55531  0.75112  1.0000
  C   C42       1.0  0.89176  0.54839  0.75119  1.0000
  C   C43       1.0  0.86609  0.59812  0.75103  1.0000
  C   C44       1.0  0.90460  0.63666  0.75091  1.0000
  N   N12       1.0  0.94745  0.44860  0.75121  1.0000
  C   C45       1.0  0.89176  0.45550  0.75135  1.0000
  N   N13       1.0  0.86437  0.50194  0.75143  1.0000
  C   C46       1.0  0.86610  0.40575  0.75125  1.0000
  C   C47       1.0  0.90462  0.36724  0.75103  1.0000
  C   C48       1.0  0.95436  0.39291  0.75098  1.0000
  C   C49       1.0  0.89213  0.69132  0.75084  1.0000
  C   C50       1.0  0.83730  0.70564  0.75084  1.0000
  C   C51       1.0  0.79705  0.66534  0.75088  1.0000
  C   C52       1.0  0.81142  0.61053  0.75101  1.0000
  C   C53       1.0  0.89219  0.31257  0.75094  1.0000
  C   C54       1.0  0.83738  0.29821  0.75109  1.0000
  C   C55       1.0  0.79710  0.33848  0.75126  1.0000
  C   C56       1.0  0.81144  0.39331  0.75133  1.0000
  N   N14       1.0  0.05414  0.44861  0.75116  1.0000
  C   C57       1.0  0.04723  0.39292  0.75092  1.0000
  N   N15       1.0  0.00010  0.36553  0.75075  1.0000
  C   C58       1.0  0.09696  0.36725  0.75093  1.0000
  C   C59       1.0  0.13548  0.40577  0.75118  1.0000
  C   C60       1.0  0.10982  0.45552  0.75135  1.0000
  C   C61       1.0  0.19014  0.39332  0.75118  1.0000
  C   C62       1.0  0.20447  0.33849  0.75094  1.0000
  C   C63       1.0  0.16418  0.29822  0.75079  1.0000
  C   C64       1.0  0.10937  0.31258  0.75077  1.0000
  N   N16       1.0  0.13721  0.50196  0.75161  1.0000
  H   H9        1.0  0.21689  0.58295  0.75161  1.0000
  O   O9        1.0  0.25045  0.67785  0.75143  1.0000
  O   O10       1.0  0.17670  0.75161  0.75115  1.0000
  H   H10       1.0  0.08180  0.71806  0.75100  1.0000
  H   H11       1.0  0.91973  0.71807  0.75079  1.0000
  O   O11       1.0  0.82483  0.75156  0.75083  1.0000
  O   O12       1.0  0.75111  0.67777  0.75079  1.0000
  H   H12       1.0  0.78471  0.58289  0.75106  1.0000
  H   H13       1.0  0.91981  0.28585  0.75081  1.0000
  O   O13       1.0  0.82494  0.25228  0.75110  1.0000
  O   O14       1.0  0.75118  0.32603  0.75136  1.0000
  H   H14       1.0  0.78470  0.42092  0.75144  1.0000
  H   H15       1.0  0.21688  0.42093  0.75131  1.0000
  O   O15       1.0  0.25040  0.32603  0.75086  1.0000
  O   O16       1.0  0.17662  0.25228  0.75067  1.0000
  H   H16       1.0  0.08174  0.28586  0.75064  1.0000
  Ni  Ni2       1.0  0.00010  0.50196  0.75128  1.0000
  C   C65       1.0  0.25045  0.89336  0.31172  1.0000
  C   C66       1.0  0.25057  0.83854  0.29737  1.0000
  C   C67       1.0  0.25074  0.79825  0.33765  1.0000
  C   C68       1.0  0.25083  0.81260  0.39248  1.0000
  C   C69       1.0  0.25072  0.86726  0.40491  1.0000
  C   C70       1.0  0.25051  0.90579  0.36639  1.0000
  C   C71       1.0  0.25045  0.95553  0.39206  1.0000
  N   N17       1.0  0.25061  0.94861  0.44774  1.0000
  C   C72       1.0  0.25078  0.89292  0.45465  1.0000
  N   N18       1.0  0.25101  0.86553  0.50110  1.0000
  C   C73       1.0  0.25098  0.89291  0.54754  1.0000
  N   N19       1.0  0.25081  0.94860  0.55444  1.0000
  C   C74       1.0  0.25073  0.95552  0.61013  1.0000
  C   C75       1.0  0.25089  0.90578  0.63581  1.0000
  C   C76       1.0  0.25102  0.86725  0.59730  1.0000
  N   N20       1.0  0.25071  0.05531  0.55443  1.0000
  C   C77       1.0  0.25056  0.04840  0.61012  1.0000
  N   N21       1.0  0.25049  0.00196  0.63752  1.0000
  C   C78       1.0  0.25066  0.09815  0.63578  1.0000
  C   C79       1.0  0.25087  0.13667  0.59726  1.0000
  C   C80       1.0  0.25093  0.11100  0.54752  1.0000
  C   C81       1.0  0.25110  0.81259  0.60977  1.0000
  C   C82       1.0  0.25110  0.79826  0.66460  1.0000
  C   C83       1.0  0.25106  0.83855  0.70486  1.0000
  C   C84       1.0  0.25092  0.89337  0.69047  1.0000
  C   C85       1.0  0.25096  0.19133  0.60968  1.0000
  C   C86       1.0  0.25081  0.20569  0.66450  1.0000
  C   C87       1.0  0.25064  0.16541  0.70478  1.0000
  C   C88       1.0  0.25057  0.11059  0.69044  1.0000
  N   N22       1.0  0.25077  0.05531  0.44774  1.0000
  C   C89       1.0  0.25100  0.11100  0.45465  1.0000
  N   N23       1.0  0.25117  0.13839  0.50108  1.0000
  C   C90       1.0  0.25099  0.13668  0.40491  1.0000
  C   C91       1.0  0.25074  0.09816  0.36639  1.0000
  C   C92       1.0  0.25058  0.04841  0.39205  1.0000
  C   C93       1.0  0.25075  0.11062  0.31173  1.0000
  C   C94       1.0  0.25098  0.16545  0.29739  1.0000
  C   C95       1.0  0.25113  0.20572  0.33768  1.0000
  C   C96       1.0  0.25114  0.19135  0.39250  1.0000
  N   N24       1.0  0.25033  0.00197  0.36467  1.0000
  H   H17       1.0  0.25034  0.92099  0.28499  1.0000
  O   O17       1.0  0.25053  0.82610  0.25144  1.0000
  O   O18       1.0  0.25081  0.75232  0.32519  1.0000
  H   H18       1.0  0.25095  0.78586  0.42010  1.0000
  H   H19       1.0  0.25115  0.78584  0.58217  1.0000
  O   O19       1.0  0.25111  0.75233  0.67708  1.0000
  O   O20       1.0  0.25114  0.82612  0.75079  1.0000
  H   H20       1.0  0.25087  0.92100  0.71719  1.0000
  H   H21       1.0  0.25110  0.21806  0.58206  1.0000
  O   O21       1.0  0.25080  0.25162  0.67694  1.0000
  O   O22       1.0  0.25053  0.17786  0.75070  1.0000
  H   H22       1.0  0.25046  0.08297  0.71718  1.0000
  H   H23       1.0  0.25062  0.08301  0.28499  1.0000
  O   O23       1.0  0.25106  0.17792  0.25146  1.0000
  O   O24       1.0  0.25125  0.25166  0.32524  1.0000
  H   H24       1.0  0.25127  0.21806  0.42012  1.0000
  Ni  Ni3       1.0  0.25064  0.00196  0.50108  1.0000
  C   C97       1.0  0.69016  0.75229  0.89250  1.0000
  C   C98       1.0  0.70452  0.75217  0.83768  1.0000
  C   C99       1.0  0.66424  0.75199  0.79740  1.0000
  C   C100      1.0  0.60942  0.75191  0.81175  1.0000
  C   C101      1.0  0.59698  0.75202  0.86641  1.0000
  C   C102      1.0  0.63550  0.75224  0.90493  1.0000
  C   C103      1.0  0.60983  0.75230  0.95467  1.0000
  N   N25       1.0  0.55415  0.75213  0.94776  1.0000
  C   C104      1.0  0.54724  0.75196  0.89207  1.0000
  N   N26       1.0  0.50079  0.75173  0.86468  1.0000
  C   C105      1.0  0.45435  0.75176  0.89207  1.0000
  N   N27       1.0  0.44745  0.75193  0.94776  1.0000
  C   C106      1.0  0.39177  0.75201  0.95468  1.0000
  C   C107      1.0  0.36609  0.75185  0.90495  1.0000
  C   C108      1.0  0.40460  0.75172  0.86641  1.0000
  N   N28       1.0  0.44746  0.75204  0.05446  1.0000
  C   C109      1.0  0.39177  0.75219  0.04756  1.0000
  N   N29       1.0  0.36438  0.75226  0.00112  1.0000
  C   C110      1.0  0.36611  0.75209  0.09730  1.0000
  C   C111      1.0  0.40463  0.75189  0.13582  1.0000
  C   C112      1.0  0.45437  0.75183  0.11015  1.0000
  C   C113      1.0  0.39213  0.75163  0.81176  1.0000
  C   C114      1.0  0.33730  0.75164  0.79743  1.0000
  C   C115      1.0  0.29705  0.75169  0.83773  1.0000
  C   C116      1.0  0.31143  0.75183  0.89254  1.0000
  C   C117      1.0  0.39221  0.75180  0.19048  1.0000
  C   C118      1.0  0.33739  0.75196  0.20484  1.0000
  C   C119      1.0  0.29712  0.75213  0.16457  1.0000
  C   C120      1.0  0.31145  0.75219  0.10975  1.0000
  N   N30       1.0  0.55415  0.75199  0.05445  1.0000
  C   C121      1.0  0.54724  0.75176  0.11014  1.0000
  N   N31       1.0  0.50081  0.75159  0.13753  1.0000
  C   C122      1.0  0.59697  0.75177  0.13581  1.0000
  C   C123      1.0  0.63550  0.75201  0.09730  1.0000
  C   C124      1.0  0.60983  0.75217  0.04755  1.0000
  C   C125      1.0  0.69015  0.75201  0.10975  1.0000
  C   C126      1.0  0.70449  0.75178  0.16458  1.0000
  C   C127      1.0  0.66420  0.75163  0.20484  1.0000
  C   C128      1.0  0.60938  0.75162  0.19048  1.0000
  N   N32       1.0  0.63722  0.75242  0.00111  1.0000
  H   H25       1.0  0.71689  0.75241  0.92012  1.0000
  O   O25       1.0  0.75045  0.75220  0.82523  1.0000
  O   O26       1.0  0.67670  0.75192  0.75147  1.0000
  H   H26       1.0  0.58180  0.75178  0.78502  1.0000
  H   H27       1.0  0.41973  0.75158  0.78501  1.0000
  O   O27       1.0  0.32483  0.75162  0.75151  1.0000
  O   O28       1.0  0.25111  0.75160  0.82530  1.0000
  H   H28       1.0  0.28471  0.75188  0.92017  1.0000
  H   H29       1.0  0.41983  0.75167  0.21721  1.0000
  O   O29       1.0  0.32495  0.75197  0.25077  1.0000
  O   O30       1.0  0.25119  0.75223  0.17702  1.0000
  H   H30       1.0  0.28471  0.75229  0.08214  1.0000
  H   H31       1.0  0.71689  0.75213  0.08214  1.0000
  O   O31       1.0  0.75041  0.75170  0.17704  1.0000
  O   O32       1.0  0.67664  0.75152  0.25078  1.0000
  H   H32       1.0  0.58176  0.75149  0.21719  1.0000
  Ni  Ni4       1.0  0.50081  0.75211  0.00110  1.0000
  C   C129      1.0  0.75023  0.89336  0.31172  1.0000
  C   C130      1.0  0.75036  0.83853  0.29736  1.0000
  C   C131      1.0  0.75053  0.79825  0.33764  1.0000
  C   C132      1.0  0.75061  0.81259  0.39247  1.0000
  C   C133      1.0  0.75051  0.86725  0.40491  1.0000
  C   C134      1.0  0.75029  0.90578  0.36639  1.0000
  C   C135      1.0  0.75023  0.95552  0.39206  1.0000
  N   N33       1.0  0.75039  0.94860  0.44774  1.0000
  C   C136      1.0  0.75057  0.89291  0.45465  1.0000
  N   N34       1.0  0.75080  0.86551  0.50110  1.0000
  C   C137      1.0  0.75077  0.89289  0.54754  1.0000
  N   N35       1.0  0.75060  0.94859  0.55444  1.0000
  C   C138      1.0  0.75052  0.95550  0.61013  1.0000
  C   C139      1.0  0.75068  0.90576  0.63580  1.0000
  C   C140      1.0  0.75081  0.86723  0.59730  1.0000
  N   N36       1.0  0.75049  0.05529  0.55444  1.0000
  C   C141      1.0  0.75034  0.04838  0.61013  1.0000
  N   N37       1.0  0.75027  0.00194  0.63752  1.0000
  C   C142      1.0  0.75044  0.09813  0.63579  1.0000
  C   C143      1.0  0.75065  0.13665  0.59727  1.0000
  C   C144      1.0  0.75071  0.11098  0.54753  1.0000
  C   C145      1.0  0.75089  0.81257  0.60976  1.0000
  C   C146      1.0  0.75089  0.79824  0.66459  1.0000
  C   C147      1.0  0.75085  0.83852  0.70485  1.0000
  C   C148      1.0  0.75070  0.89334  0.69047  1.0000
  C   C149      1.0  0.75073  0.19131  0.60969  1.0000
  C   C150      1.0  0.75058  0.20566  0.66451  1.0000
  C   C151      1.0  0.75041  0.16538  0.70479  1.0000
  C   C152      1.0  0.75035  0.11056  0.69045  1.0000
  N   N38       1.0  0.75054  0.05530  0.44774  1.0000
  C   C153      1.0  0.75077  0.11099  0.45465  1.0000
  N   N39       1.0  0.75094  0.13837  0.50109  1.0000
  C   C154      1.0  0.75076  0.13667  0.40492  1.0000
  C   C155      1.0  0.75052  0.09816  0.36639  1.0000
  C   C156      1.0  0.75036  0.04840  0.39206  1.0000
  C   C157      1.0  0.75052  0.11061  0.31173  1.0000
  C   C158      1.0  0.75075  0.16545  0.29740  1.0000
  C   C159      1.0  0.75090  0.20571  0.33769  1.0000
  C   C160      1.0  0.75091  0.19134  0.39251  1.0000
  N   N40       1.0  0.75011  0.00196  0.36467  1.0000
  H   H33       1.0  0.75012  0.92099  0.28499  1.0000
  O   O33       1.0  0.75032  0.82609  0.25143  1.0000
  O   O34       1.0  0.75060  0.75232  0.32518  1.0000
  H   H34       1.0  0.75074  0.78585  0.42009  1.0000
  H   H35       1.0  0.75095  0.78582  0.58216  1.0000
  O   O35       1.0  0.75090  0.75231  0.67707  1.0000
  O   O36       1.0  0.75093  0.82609  0.75079  1.0000
  H   H36       1.0  0.75065  0.92097  0.71719  1.0000
  H   H37       1.0  0.75087  0.21804  0.58207  1.0000
  O   O37       1.0  0.75057  0.25159  0.67695  1.0000
  O   O38       1.0  0.75031  0.17783  0.75072  1.0000
  H   H38       1.0  0.75024  0.08295  0.71719  1.0000
  H   H39       1.0  0.75040  0.08301  0.28499  1.0000
  O   O39       1.0  0.75083  0.17792  0.25148  1.0000
  O   O40       1.0  0.75101  0.25165  0.32525  1.0000
  H   H40       1.0  0.75104  0.21805  0.42014  1.0000
  Ni  Ni5       1.0  0.75042  0.00194  0.50109  1.0000
  C   C161      1.0  0.31141  0.25254  0.10969  1.0000
  C   C162      1.0  0.29705  0.25242  0.16451  1.0000
  C   C163      1.0  0.33733  0.25225  0.20479  1.0000
  C   C164      1.0  0.39215  0.25216  0.19045  1.0000
  C   C165      1.0  0.40459  0.25226  0.13579  1.0000
  C   C166      1.0  0.36608  0.25248  0.09726  1.0000
  C   C167      1.0  0.39175  0.25253  0.04753  1.0000
  N   N41       1.0  0.44743  0.25236  0.05444  1.0000
  C   C168      1.0  0.45434  0.25219  0.11013  1.0000
  N   N42       1.0  0.50078  0.25196  0.13752  1.0000
  C   C169      1.0  0.54722  0.25199  0.11013  1.0000
  N   N43       1.0  0.55413  0.25215  0.05444  1.0000
  C   C170      1.0  0.60981  0.25222  0.04753  1.0000
  C   C171      1.0  0.63548  0.25206  0.09726  1.0000
  C   C172      1.0  0.59697  0.25194  0.13579  1.0000
  N   N44       1.0  0.55413  0.25225  0.94775  1.0000
  C   C173      1.0  0.60981  0.25239  0.95465  1.0000
  N   N45       1.0  0.63720  0.25246  0.00109  1.0000
  C   C174      1.0  0.63548  0.25228  0.90490  1.0000
  C   C175      1.0  0.59696  0.25208  0.86639  1.0000
  C   C176      1.0  0.54722  0.25202  0.89206  1.0000
  C   C177      1.0  0.60944  0.25186  0.19045  1.0000
  C   C178      1.0  0.66427  0.25186  0.20477  1.0000
  C   C179      1.0  0.70452  0.25190  0.16448  1.0000
  C   C180      1.0  0.69015  0.25204  0.10967  1.0000
  C   C181      1.0  0.60938  0.25198  0.81172  1.0000
  C   C182      1.0  0.66420  0.25213  0.79737  1.0000
  C   C183      1.0  0.70447  0.25230  0.83764  1.0000
  C   C184      1.0  0.69014  0.25237  0.89246  1.0000
  N   N46       1.0  0.44744  0.25220  0.94774  1.0000
  C   C185      1.0  0.45435  0.25197  0.89206  1.0000
  N   N47       1.0  0.50078  0.25179  0.86467  1.0000
  C   C186      1.0  0.40462  0.25198  0.86638  1.0000
  C   C187      1.0  0.36609  0.25223  0.90489  1.0000
  C   C188      1.0  0.39175  0.25239  0.95465  1.0000
  C   C189      1.0  0.31143  0.25223  0.89244  1.0000
  C   C190      1.0  0.29710  0.25200  0.83761  1.0000
  C   C191      1.0  0.33739  0.25184  0.79735  1.0000
  C   C192      1.0  0.39221  0.25182  0.81172  1.0000
  N   N48       1.0  0.36437  0.25265  0.00108  1.0000
  H   H41       1.0  0.28469  0.25265  0.08206  1.0000
  O   O41       1.0  0.25112  0.25247  0.17695  1.0000
  O   O42       1.0  0.32487  0.25218  0.25072  1.0000
  H   H42       1.0  0.41977  0.25203  0.21718  1.0000
  H   H43       1.0  0.58184  0.25181  0.21720  1.0000
  O   O43       1.0  0.67674  0.25185  0.25070  1.0000
  O   O44       1.0  0.75046  0.25181  0.17691  1.0000
  H   H44       1.0  0.71686  0.25208  0.08204  1.0000
  H   H45       1.0  0.58177  0.25185  0.78500  1.0000
  O   O45       1.0  0.67664  0.25214  0.75144  1.0000
  O   O46       1.0  0.75040  0.25240  0.82519  1.0000
  H   H46       1.0  0.71687  0.25248  0.92007  1.0000
  H   H47       1.0  0.28469  0.25236  0.92005  1.0000
  O   O47       1.0  0.25118  0.25192  0.82515  1.0000
  O   O48       1.0  0.32495  0.25172  0.75141  1.0000
  H   H48       1.0  0.41984  0.25169  0.78500  1.0000
  Ni  Ni6       1.0  0.50077  0.25232  0.00109  1.0000
