data_image0
_chemical_formula_structural       Fe8C7NCNCNC3NCNC11NCNC7NHO2H2O2H2O2H2O2HNiC7NCNCNC3NCNC11NCNC7NHO2H2O2H2O2H2O2HNiC7NCNCNC3NCNC11NCNC7NHO2H2O2H2O2H2O2HNiC7NCNCNC3NCNC11NCNC7NHO2H2O2H2O2H2O2HNiC7NCNCNC3NCNC11NCNC7NHO2H2O2H2O2H2O2HNiC7NCNCNC3NCNC11NCNC7NHO2H2O2H2O2H2O2HNi
_chemical_formula_sum              "Fe8 C192 N48 H48 O48 Ni6"
_cell_length_a       27.3188
_cell_length_b       27.3163
_cell_length_c       27.3178
_cell_angle_alpha    89.9923
_cell_angle_beta     90.0046
_cell_angle_gamma    90.0017

_space_group_name_H-M_alt    "P 1"
_space_group_IT_number       1

loop_
  _space_group_symop_operation_xyz
  'x, y, z'

loop_
  _atom_site_type_symbol
  _atom_site_label
  _atom_site_symmetry_multiplicity
  _atom_site_fract_x
  _atom_site_fract_y
  _atom_site_fract_z
  _atom_site_occupancy
  Fe  Fe1       1.0  0.25065  0.25207  0.25115  1.0000
  Fe  Fe2       1.0  0.25062  0.75204  0.75120  1.0000
  Fe  Fe3       1.0  0.75068  0.75209  0.25115  1.0000
  Fe  Fe4       1.0  0.75062  0.25203  0.75115  1.0000
  Fe  Fe5       1.0  0.75062  0.75200  0.75121  1.0000
  Fe  Fe6       1.0  0.75064  0.25205  0.25116  1.0000
  Fe  Fe7       1.0  0.25064  0.25204  0.75112  1.0000
  Fe  Fe8       1.0  0.25066  0.75206  0.25116  1.0000
  C   C1        1.0  0.81127  0.39345  0.25169  1.0000
  C   C2        1.0  0.79691  0.33862  0.25157  1.0000
  C   C3        1.0  0.83718  0.29834  0.25139  1.0000
  C   C4        1.0  0.89201  0.31269  0.25131  1.0000
  C   C5        1.0  0.90445  0.36735  0.25141  1.0000
  C   C6        1.0  0.86594  0.40588  0.25163  1.0000
  C   C7        1.0  0.89161  0.45562  0.25169  1.0000
  N   N1        1.0  0.94729  0.44870  0.25152  1.0000
  C   C8        1.0  0.95420  0.39301  0.25135  1.0000
  N   N2        1.0  0.00010  0.36562  0.25112  1.0000
  C   C9        1.0  0.04709  0.39301  0.25115  1.0000
  N   N3        1.0  0.05399  0.44870  0.25132  1.0000
  C   C10       1.0  0.10968  0.45561  0.25140  1.0000
  C   C11       1.0  0.13535  0.40588  0.25123  1.0000
  C   C12       1.0  0.09684  0.36734  0.25110  1.0000
  N   N4        1.0  0.05400  0.55540  0.25143  1.0000
  C   C13       1.0  0.10969  0.54850  0.25157  1.0000
  N   N5        1.0  0.13707  0.50206  0.25164  1.0000
  C   C14       1.0  0.13535  0.59825  0.25147  1.0000
  C   C15       1.0  0.09683  0.63676  0.25126  1.0000
  C   C16       1.0  0.04709  0.61109  0.25121  1.0000
  C   C17       1.0  0.10930  0.31268  0.25102  1.0000
  C   C18       1.0  0.16413  0.29836  0.25103  1.0000
  C   C19       1.0  0.20438  0.33865  0.25107  1.0000
  C   C20       1.0  0.19001  0.39347  0.25121  1.0000
  C   C21       1.0  0.10927  0.69143  0.25118  1.0000
  C   C22       1.0  0.16408  0.70579  0.25133  1.0000
  C   C23       1.0  0.20435  0.66551  0.25150  1.0000
  C   C24       1.0  0.19001  0.61069  0.25156  1.0000
  N   N6        1.0  0.94731  0.55540  0.25137  1.0000
  C   C25       1.0  0.95422  0.61109  0.25115  1.0000
  N   N7        1.0  0.00010  0.63848  0.25097  1.0000
  C   C26       1.0  0.90449  0.63677  0.25116  1.0000
  C   C27       1.0  0.86596  0.59825  0.25140  1.0000
  C   C28       1.0  0.89162  0.54850  0.25156  1.0000
  C   C29       1.0  0.81131  0.61071  0.25140  1.0000
  C   C30       1.0  0.79698  0.66554  0.25117  1.0000
  C   C31       1.0  0.83727  0.70581  0.25102  1.0000
  C   C32       1.0  0.89209  0.69144  0.25100  1.0000
  N   N8        1.0  0.86423  0.50206  0.25181  1.0000
  H   H1        1.0  0.78455  0.42108  0.25180  1.0000
  O   O1        1.0  0.75098  0.32618  0.25161  1.0000
  O   O2        1.0  0.82472  0.25241  0.25132  1.0000
  H   H2        1.0  0.91963  0.28595  0.25118  1.0000
  H   H3        1.0  0.08169  0.28594  0.25097  1.0000
  O   O3        1.0  0.17660  0.25243  0.25101  1.0000
  O   O4        1.0  0.25032  0.32622  0.25098  1.0000
  H   H4        1.0  0.21673  0.42110  0.25126  1.0000
  H   H5        1.0  0.08165  0.71816  0.25105  1.0000
  O   O5        1.0  0.17653  0.75172  0.25134  1.0000
  O   O6        1.0  0.25028  0.67796  0.25160  1.0000
  H   H6        1.0  0.21675  0.58307  0.25167  1.0000
  H   H7        1.0  0.78457  0.58310  0.25152  1.0000
  O   O7        1.0  0.75106  0.67801  0.25109  1.0000
  O   O8        1.0  0.82484  0.75175  0.25090  1.0000
  H   H8        1.0  0.91972  0.71815  0.25087  1.0000
  Ni  Ni1       1.0  0.00010  0.50205  0.25149  1.0000
  C   C33       1.0  0.19000  0.61065  0.75158  1.0000
  C   C34       1.0  0.20436  0.66547  0.75146  1.0000
  C   C35       1.0  0.16409  0.70575  0.75130  1.0000
  C   C36       1.0  0.10926  0.69141  0.75121  1.0000
  C   C37       1.0  0.09682  0.63674  0.75131  1.0000
  C   C38       1.0  0.13534  0.59822  0.75152  1.0000
  C   C39       1.0  0.10967  0.54848  0.75157  1.0000
  N   N9        1.0  0.05398  0.55539  0.75141  1.0000
  C   C40       1.0  0.04707  0.61108  0.75124  1.0000
  N   N10       1.0  0.00010  0.63847  0.75102  1.0000
  C   C41       1.0  0.95419  0.61108  0.75105  1.0000
  N   N11       1.0  0.94729  0.55538  0.75121  1.0000
  C   C42       1.0  0.89160  0.54846  0.75129  1.0000
  C   C43       1.0  0.86593  0.59820  0.75113  1.0000
  C   C44       1.0  0.90444  0.63674  0.75100  1.0000
  N   N12       1.0  0.94728  0.44868  0.75130  1.0000
  C   C45       1.0  0.89160  0.45558  0.75145  1.0000
  N   N13       1.0  0.86421  0.50202  0.75152  1.0000
  C   C46       1.0  0.86593  0.40583  0.75134  1.0000
  C   C47       1.0  0.90446  0.36732  0.75113  1.0000
  C   C48       1.0  0.95419  0.39299  0.75107  1.0000
  C   C49       1.0  0.89197  0.69140  0.75093  1.0000
  C   C50       1.0  0.83714  0.70572  0.75094  1.0000
  C   C51       1.0  0.79689  0.66542  0.75098  1.0000
  C   C52       1.0  0.81126  0.61061  0.75111  1.0000
  C   C53       1.0  0.89203  0.31265  0.75103  1.0000
  C   C54       1.0  0.83721  0.29829  0.75118  1.0000
  C   C55       1.0  0.79694  0.33856  0.75136  1.0000
  C   C56       1.0  0.81127  0.39339  0.75143  1.0000
  N   N14       1.0  0.05398  0.44869  0.75124  1.0000
  C   C57       1.0  0.04706  0.39300  0.75101  1.0000
  N   N15       1.0  0.00010  0.36560  0.75083  1.0000
  C   C58       1.0  0.09679  0.36732  0.75102  1.0000
  C   C59       1.0  0.13532  0.40584  0.75126  1.0000
  C   C60       1.0  0.10966  0.45559  0.75143  1.0000
  C   C61       1.0  0.18998  0.39339  0.75126  1.0000
  C   C62       1.0  0.20431  0.33856  0.75102  1.0000
  C   C63       1.0  0.16402  0.29829  0.75087  1.0000
  C   C64       1.0  0.10920  0.31266  0.75085  1.0000
  N   N16       1.0  0.13705  0.50204  0.75169  1.0000
  H   H9        1.0  0.21673  0.58302  0.75169  1.0000
  O   O9        1.0  0.25029  0.67792  0.75151  1.0000
  O   O10       1.0  0.17655  0.75169  0.75123  1.0000
  H   H10       1.0  0.08164  0.71814  0.75109  1.0000
  H   H11       1.0  0.91957  0.71815  0.75088  1.0000
  O   O11       1.0  0.82467  0.75164  0.75093  1.0000
  O   O12       1.0  0.75095  0.67785  0.75089  1.0000
  H   H12       1.0  0.78455  0.58297  0.75116  1.0000
  H   H13       1.0  0.91965  0.28592  0.75090  1.0000
  O   O13       1.0  0.82477  0.25236  0.75119  1.0000
  O   O14       1.0  0.75101  0.32611  0.75146  1.0000
  H   H14       1.0  0.78454  0.42100  0.75154  1.0000
  H   H15       1.0  0.21672  0.42100  0.75138  1.0000
  O   O15       1.0  0.25023  0.32609  0.75094  1.0000
  O   O16       1.0  0.17646  0.25235  0.75074  1.0000
  H   H16       1.0  0.08158  0.28594  0.75072  1.0000
  Ni  Ni2       1.0  0.00010  0.50204  0.75137  1.0000
  C   C65       1.0  0.25118  0.89342  0.69055  1.0000
  C   C66       1.0  0.25106  0.83859  0.70491  1.0000
  C   C67       1.0  0.25088  0.79831  0.66464  1.0000
  C   C68       1.0  0.25080  0.81266  0.60981  1.0000
  C   C69       1.0  0.25091  0.86732  0.59736  1.0000
  C   C70       1.0  0.25112  0.90585  0.63588  1.0000
  C   C71       1.0  0.25118  0.95559  0.61020  1.0000
  N   N17       1.0  0.25102  0.94868  0.55452  1.0000
  C   C72       1.0  0.25085  0.89299  0.54761  1.0000
  N   N18       1.0  0.25062  0.86560  0.50117  1.0000
  C   C73       1.0  0.25065  0.89299  0.45472  1.0000
  N   N19       1.0  0.25082  0.94868  0.44782  1.0000
  C   C74       1.0  0.25090  0.95560  0.39213  1.0000
  C   C75       1.0  0.25074  0.90586  0.36646  1.0000
  C   C76       1.0  0.25061  0.86733  0.40497  1.0000
  N   N20       1.0  0.25093  0.05539  0.44780  1.0000
  C   C77       1.0  0.25107  0.04849  0.39211  1.0000
  N   N21       1.0  0.25115  0.00205  0.36473  1.0000
  C   C78       1.0  0.25098  0.09823  0.36645  1.0000
  C   C79       1.0  0.25077  0.13675  0.40496  1.0000
  C   C80       1.0  0.25071  0.11108  0.45471  1.0000
  C   C81       1.0  0.25053  0.81267  0.39251  1.0000
  C   C82       1.0  0.25053  0.79835  0.33769  1.0000
  C   C83       1.0  0.25058  0.83864  0.29742  1.0000
  C   C84       1.0  0.25072  0.89346  0.31179  1.0000
  C   C85       1.0  0.25068  0.19142  0.39253  1.0000
  C   C86       1.0  0.25084  0.20578  0.33771  1.0000
  C   C87       1.0  0.25101  0.16550  0.29744  1.0000
  C   C88       1.0  0.25107  0.11068  0.31178  1.0000
  N   N22       1.0  0.25087  0.05538  0.55450  1.0000
  C   C89       1.0  0.25064  0.11107  0.54758  1.0000
  N   N23       1.0  0.25047  0.13846  0.50114  1.0000
  C   C90       1.0  0.25065  0.13674  0.59731  1.0000
  C   C91       1.0  0.25089  0.09823  0.63584  1.0000
  C   C92       1.0  0.25105  0.04848  0.61019  1.0000
  C   C93       1.0  0.25089  0.11068  0.69050  1.0000
  C   C94       1.0  0.25066  0.16551  0.70483  1.0000
  C   C95       1.0  0.25051  0.20578  0.66453  1.0000
  C   C96       1.0  0.25050  0.19141  0.60971  1.0000
  N   N24       1.0  0.25130  0.00203  0.63758  1.0000
  H   H17       1.0  0.25129  0.92104  0.71727  1.0000
  O   O17       1.0  0.25109  0.82615  0.75084  1.0000
  O   O18       1.0  0.25081  0.75238  0.67711  1.0000
  H   H18       1.0  0.25067  0.78593  0.58219  1.0000
  H   H19       1.0  0.25047  0.78592  0.42012  1.0000
  O   O19       1.0  0.25052  0.75242  0.32522  1.0000
  O   O20       1.0  0.25049  0.82622  0.25149  1.0000
  H   H20       1.0  0.25077  0.92109  0.28507  1.0000
  H   H21       1.0  0.25055  0.21814  0.42015  1.0000
  O   O21       1.0  0.25085  0.25171  0.32526  1.0000
  O   O22       1.0  0.25111  0.17796  0.25151  1.0000
  H   H22       1.0  0.25118  0.08307  0.28505  1.0000
  H   H23       1.0  0.25101  0.08306  0.71724  1.0000
  O   O23       1.0  0.25058  0.17797  0.75075  1.0000
  O   O24       1.0  0.25039  0.25171  0.67696  1.0000
  H   H24       1.0  0.25037  0.21813  0.58208  1.0000
  Ni  Ni3       1.0  0.25099  0.00203  0.50116  1.0000
  C   C97       1.0  0.31126  0.75147  0.89258  1.0000
  C   C98       1.0  0.29689  0.75158  0.83775  1.0000
  C   C99       1.0  0.33716  0.75175  0.79747  1.0000
  C   C100      1.0  0.39199  0.75184  0.81182  1.0000
  C   C101      1.0  0.40444  0.75174  0.86648  1.0000
  C   C102      1.0  0.36592  0.75153  0.90500  1.0000
  C   C103      1.0  0.39160  0.75147  0.95474  1.0000
  N   N25       1.0  0.44728  0.75164  0.94782  1.0000
  C   C104      1.0  0.45418  0.75181  0.89214  1.0000
  N   N26       1.0  0.50062  0.75203  0.86475  1.0000
  C   C105      1.0  0.54707  0.75200  0.89213  1.0000
  N   N27       1.0  0.55398  0.75184  0.94782  1.0000
  C   C106      1.0  0.60966  0.75176  0.95474  1.0000
  C   C107      1.0  0.63533  0.75192  0.90500  1.0000
  C   C108      1.0  0.59682  0.75205  0.86647  1.0000
  N   N28       1.0  0.55399  0.75175  0.05452  1.0000
  C   C109      1.0  0.60968  0.75160  0.04762  1.0000
  N   N29       1.0  0.63706  0.75153  0.00118  1.0000
  C   C110      1.0  0.63535  0.75171  0.09736  1.0000
  C   C111      1.0  0.59683  0.75192  0.13588  1.0000
  C   C112      1.0  0.54709  0.75197  0.11021  1.0000
  C   C113      1.0  0.60928  0.75212  0.81181  1.0000
  C   C114      1.0  0.66410  0.75212  0.79749  1.0000
  C   C115      1.0  0.70436  0.75208  0.83778  1.0000
  C   C116      1.0  0.68999  0.75195  0.89259  1.0000
  C   C117      1.0  0.60926  0.75201  0.19054  1.0000
  C   C118      1.0  0.66408  0.75186  0.20490  1.0000
  C   C119      1.0  0.70435  0.75168  0.16462  1.0000
  C   C120      1.0  0.69001  0.75162  0.10980  1.0000
  N   N30       1.0  0.44730  0.75180  0.05452  1.0000
  C   C121      1.0  0.45422  0.75204  0.11021  1.0000
  N   N31       1.0  0.50065  0.75221  0.13759  1.0000
  C   C122      1.0  0.40449  0.75202  0.13588  1.0000
  C   C123      1.0  0.36596  0.75178  0.09737  1.0000
  C   C124      1.0  0.39161  0.75162  0.04762  1.0000
  C   C125      1.0  0.31130  0.75178  0.10982  1.0000
  C   C126      1.0  0.29698  0.75202  0.16465  1.0000
  C   C127      1.0  0.33727  0.75217  0.20492  1.0000
  C   C128      1.0  0.39209  0.75219  0.19055  1.0000
  N   N32       1.0  0.36422  0.75136  0.00118  1.0000
  H   H25       1.0  0.28453  0.75136  0.92020  1.0000
  O   O25       1.0  0.25096  0.75154  0.82531  1.0000
  O   O26       1.0  0.32469  0.75182  0.75155  1.0000
  H   H26       1.0  0.41960  0.75197  0.78508  1.0000
  H   H27       1.0  0.58167  0.75217  0.78507  1.0000
  O   O27       1.0  0.67657  0.75213  0.75157  1.0000
  O   O28       1.0  0.75030  0.75216  0.82535  1.0000
  H   H28       1.0  0.71671  0.75190  0.92022  1.0000
  H   H29       1.0  0.58165  0.75214  0.21727  1.0000
  O   O29       1.0  0.67653  0.75185  0.25082  1.0000
  O   O30       1.0  0.75028  0.75158  0.17708  1.0000
  H   H30       1.0  0.71674  0.75151  0.08219  1.0000
  H   H31       1.0  0.28456  0.75166  0.08221  1.0000
  O   O31       1.0  0.25105  0.75210  0.17712  1.0000
  O   O32       1.0  0.32484  0.75229  0.25085  1.0000
  H   H32       1.0  0.41972  0.75232  0.21726  1.0000
  Ni  Ni4       1.0  0.50063  0.75167  0.00117  1.0000
  C   C129      1.0  0.75099  0.89340  0.69056  1.0000
  C   C130      1.0  0.75087  0.83857  0.70493  1.0000
  C   C131      1.0  0.75070  0.79829  0.66465  1.0000
  C   C132      1.0  0.75062  0.81264  0.60982  1.0000
  C   C133      1.0  0.75072  0.86731  0.59738  1.0000
  C   C134      1.0  0.75093  0.90583  0.63590  1.0000
  C   C135      1.0  0.75099  0.95557  0.61022  1.0000
  N   N33       1.0  0.75083  0.94867  0.55454  1.0000
  C   C136      1.0  0.75066  0.89298  0.54763  1.0000
  N   N34       1.0  0.75043  0.86559  0.50119  1.0000
  C   C137      1.0  0.75046  0.89298  0.45474  1.0000
  N   N35       1.0  0.75063  0.94867  0.44784  1.0000
  C   C138      1.0  0.75071  0.95560  0.39215  1.0000
  C   C139      1.0  0.75055  0.90586  0.36648  1.0000
  C   C140      1.0  0.75042  0.86732  0.40499  1.0000
  N   N36       1.0  0.75073  0.05538  0.44783  1.0000
  C   C141      1.0  0.75088  0.04848  0.39214  1.0000
  N   N37       1.0  0.75095  0.00204  0.36475  1.0000
  C   C142      1.0  0.75078  0.09823  0.36647  1.0000
  C   C143      1.0  0.75057  0.13675  0.40499  1.0000
  C   C144      1.0  0.75051  0.11107  0.45474  1.0000
  C   C145      1.0  0.75034  0.81267  0.39253  1.0000
  C   C146      1.0  0.75035  0.79835  0.33770  1.0000
  C   C147      1.0  0.75039  0.83864  0.29744  1.0000
  C   C148      1.0  0.75053  0.89346  0.31181  1.0000
  C   C149      1.0  0.75048  0.19141  0.39256  1.0000
  C   C150      1.0  0.75063  0.20577  0.33775  1.0000
  C   C151      1.0  0.75081  0.16550  0.29747  1.0000
  C   C152      1.0  0.75087  0.11068  0.31181  1.0000
  N   N38       1.0  0.75067  0.05537  0.55453  1.0000
  C   C153      1.0  0.75044  0.11106  0.54761  1.0000
  N   N39       1.0  0.75027  0.13845  0.50117  1.0000
  C   C154      1.0  0.75045  0.13673  0.59734  1.0000
  C   C155      1.0  0.75069  0.09821  0.63587  1.0000
  C   C156      1.0  0.75085  0.04846  0.61021  1.0000
  C   C157      1.0  0.75068  0.11066  0.69053  1.0000
  C   C158      1.0  0.75045  0.16549  0.70486  1.0000
  C   C159      1.0  0.75030  0.20576  0.66456  1.0000
  C   C160      1.0  0.75029  0.19139  0.60975  1.0000
  N   N40       1.0  0.75111  0.00201  0.63760  1.0000
  H   H33       1.0  0.75110  0.92102  0.71729  1.0000
  O   O33       1.0  0.75090  0.82612  0.75086  1.0000
  O   O34       1.0  0.75063  0.75236  0.67712  1.0000
  H   H34       1.0  0.75049  0.78591  0.58221  1.0000
  H   H35       1.0  0.75029  0.78591  0.42013  1.0000
  O   O35       1.0  0.75034  0.75242  0.32523  1.0000
  O   O36       1.0  0.75031  0.82622  0.25150  1.0000
  H   H36       1.0  0.75058  0.92109  0.28509  1.0000
  H   H37       1.0  0.75034  0.21814  0.42018  1.0000
  O   O37       1.0  0.75065  0.25171  0.32530  1.0000
  O   O38       1.0  0.75091  0.17796  0.25154  1.0000
  H   H38       1.0  0.75098  0.08307  0.28507  1.0000
  H   H39       1.0  0.75081  0.08304  0.71727  1.0000
  O   O39       1.0  0.75037  0.17795  0.75078  1.0000
  O   O40       1.0  0.75018  0.25170  0.67700  1.0000
  H   H40       1.0  0.75016  0.21812  0.58212  1.0000
  Ni  Ni5       1.0  0.75080  0.00202  0.50119  1.0000
  C   C161      1.0  0.31126  0.25259  0.10974  1.0000
  C   C162      1.0  0.29690  0.25247  0.16456  1.0000
  C   C163      1.0  0.33718  0.25230  0.20485  1.0000
  C   C164      1.0  0.39200  0.25221  0.19050  1.0000
  C   C165      1.0  0.40444  0.25231  0.13584  1.0000
  C   C166      1.0  0.36592  0.25253  0.09732  1.0000
  C   C167      1.0  0.39159  0.25258  0.04758  1.0000
  N   N41       1.0  0.44728  0.25241  0.05450  1.0000
  C   C168      1.0  0.45419  0.25224  0.11019  1.0000
  N   N42       1.0  0.50063  0.25201  0.13758  1.0000
  C   C169      1.0  0.54707  0.25204  0.11019  1.0000
  N   N43       1.0  0.55397  0.25221  0.05450  1.0000
  C   C170      1.0  0.60966  0.25228  0.04759  1.0000
  C   C171      1.0  0.63533  0.25212  0.09733  1.0000
  C   C172      1.0  0.59682  0.25199  0.13586  1.0000
  N   N44       1.0  0.55397  0.25231  0.94781  1.0000
  C   C173      1.0  0.60966  0.25245  0.95471  1.0000
  N   N45       1.0  0.63705  0.25252  0.00115  1.0000
  C   C174      1.0  0.63532  0.25235  0.90497  1.0000
  C   C175      1.0  0.59680  0.25214  0.86645  1.0000
  C   C176      1.0  0.54706  0.25208  0.89212  1.0000
  C   C177      1.0  0.60929  0.25192  0.19051  1.0000
  C   C178      1.0  0.66412  0.25192  0.20484  1.0000
  C   C179      1.0  0.70437  0.25196  0.16455  1.0000
  C   C180      1.0  0.69000  0.25209  0.10974  1.0000
  C   C181      1.0  0.60923  0.25205  0.81179  1.0000
  C   C182      1.0  0.66404  0.25220  0.79743  1.0000
  C   C183      1.0  0.70432  0.25237  0.83771  1.0000
  C   C184      1.0  0.68998  0.25244  0.89253  1.0000
  N   N46       1.0  0.44728  0.25226  0.94780  1.0000
  C   C185      1.0  0.45419  0.25203  0.89212  1.0000
  N   N47       1.0  0.50062  0.25185  0.86473  1.0000
  C   C186      1.0  0.40446  0.25204  0.86644  1.0000
  C   C187      1.0  0.36593  0.25228  0.90495  1.0000
  C   C188      1.0  0.39160  0.25245  0.95470  1.0000
  C   C189      1.0  0.31128  0.25228  0.89250  1.0000
  C   C190      1.0  0.29695  0.25205  0.83767  1.0000
  C   C191      1.0  0.33723  0.25190  0.79740  1.0000
  C   C192      1.0  0.39205  0.25188  0.81178  1.0000
  N   N48       1.0  0.36421  0.25270  0.00114  1.0000
  H   H41       1.0  0.28453  0.25270  0.08212  1.0000
  O   O41       1.0  0.25097  0.25251  0.17701  1.0000
  O   O42       1.0  0.32472  0.25223  0.25077  1.0000
  H   H42       1.0  0.41962  0.25208  0.21724  1.0000
  H   H43       1.0  0.58169  0.25187  0.21726  1.0000
  O   O43       1.0  0.67659  0.25191  0.25076  1.0000
  O   O44       1.0  0.75031  0.25187  0.17698  1.0000
  H   H44       1.0  0.71671  0.25214  0.08211  1.0000
  H   H45       1.0  0.58161  0.25192  0.78506  1.0000
  O   O45       1.0  0.67648  0.25221  0.75151  1.0000
  O   O46       1.0  0.75025  0.25247  0.82526  1.0000
  H   H46       1.0  0.71672  0.25254  0.92014  1.0000
  H   H47       1.0  0.28454  0.25241  0.92011  1.0000
  O   O47       1.0  0.25102  0.25197  0.82520  1.0000
  O   O48       1.0  0.32480  0.25178  0.75147  1.0000
  H   H48       1.0  0.41968  0.25175  0.78506  1.0000
  Ni  Ni6       1.0  0.50062  0.25238  0.00116  1.0000
