data_image0
_chemical_formula_structural       Fe8C7NCNCNC3NCNC11NCNC7NHO2H2O2H2O2H2O2HNiC7NCNCNC3NCNC11NCNC7NHO2H2O2H2O2H2O2HNiC7NCNCNC3NCNC11NCNC7NHO2H2O2H2O2H2O2HNiC7NCNCNC3NCNC11NCNC7NHO2H2O2H2O2H2O2HNiC7NCNCNC3NCNC11NCNC7NHO2H2O2H2O2H2O2HNiC7NCNCNC3NCNC11NCNC7NHO2H2O2H2O2H2O2HNiC6O2HO2HCuC6O2HO2HCuC6O2HO2HCuC6O2HO2HCuC6O2HO2HCuC6O2HO2HCuC6O2HO2HCuC6O2HO2HCuC6O2HO2HCuC6O2HO2HCuC6O2HO2HCuC6O2HO2HCuC6O2HO2HCuC6O2HO2HCuC6O2HO2HCuC6O2HO2HCuC6O2HO2HCuC6O2HO2HCuC6O2HO2HCuC6O2HO2HCuC6O2HO2HCuC6O2HO2HCuC6O2HO2HCuC6O2HO2HCu
_chemical_formula_sum              "Fe8 C336 N48 H96 O144 Ni6 Cu24"
_cell_length_a       50.9776
_cell_length_b       50.9739
_cell_length_c       50.9758
_cell_angle_alpha    89.9966
_cell_angle_beta     89.9997
_cell_angle_gamma    90.0014

_space_group_name_H-M_alt    "P 1"
_space_group_IT_number       1

loop_
  _space_group_symop_operation_xyz
  'x, y, z'

loop_
  _atom_site_type_symbol
  _atom_site_label
  _atom_site_symmetry_multiplicity
  _atom_site_fract_x
  _atom_site_fract_y
  _atom_site_fract_z
  _atom_site_occupancy
  Fe  Fe1       1.0  0.25040  0.25081  0.25047  1.0000
  Fe  Fe2       1.0  0.25037  0.75081  0.75050  1.0000
  Fe  Fe3       1.0  0.75039  0.75079  0.25044  1.0000
  Fe  Fe4       1.0  0.75038  0.25078  0.75045  1.0000
  Fe  Fe5       1.0  0.75038  0.75077  0.75047  1.0000
  Fe  Fe6       1.0  0.75038  0.25078  0.25044  1.0000
  Fe  Fe7       1.0  0.25039  0.25079  0.75044  1.0000
  Fe  Fe8       1.0  0.25038  0.75079  0.25045  1.0000
  C   C1        1.0  0.89889  0.44258  0.25078  1.0000
  C   C2        1.0  0.89120  0.41320  0.25072  1.0000
  C   C3        1.0  0.91278  0.39161  0.25062  1.0000
  C   C4        1.0  0.94216  0.39930  0.25058  1.0000
  C   C5        1.0  0.94883  0.42860  0.25064  1.0000
  C   C6        1.0  0.92819  0.44924  0.25075  1.0000
  C   C7        1.0  0.94195  0.47590  0.25078  1.0000
  N   N1        1.0  0.97179  0.47219  0.25069  1.0000
  C   C8        1.0  0.97549  0.44235  0.25060  1.0000
  N   N2        1.0  0.00010  0.42767  0.25048  1.0000
  C   C9        1.0  0.02527  0.44235  0.25050  1.0000
  N   N3        1.0  0.02897  0.47219  0.25058  1.0000
  C   C10       1.0  0.05881  0.47590  0.25063  1.0000
  C   C11       1.0  0.07256  0.44925  0.25054  1.0000
  C   C12       1.0  0.05193  0.42860  0.25047  1.0000
  N   N4        1.0  0.02897  0.52937  0.25064  1.0000
  C   C13       1.0  0.05881  0.52568  0.25072  1.0000
  N   N5        1.0  0.07349  0.50079  0.25076  1.0000
  C   C14       1.0  0.07256  0.55233  0.25067  1.0000
  C   C15       1.0  0.05192  0.57298  0.25055  1.0000
  C   C16       1.0  0.02527  0.55922  0.25052  1.0000
  C   C17       1.0  0.05861  0.39931  0.25043  1.0000
  C   C18       1.0  0.08799  0.39163  0.25043  1.0000
  C   C19       1.0  0.10956  0.41322  0.25045  1.0000
  C   C20       1.0  0.10186  0.44260  0.25053  1.0000
  C   C21       1.0  0.05858  0.60227  0.25051  1.0000
  C   C22       1.0  0.08795  0.60996  0.25059  1.0000
  C   C23       1.0  0.10954  0.58838  0.25068  1.0000
  C   C24       1.0  0.10185  0.55900  0.25072  1.0000
  N   N6        1.0  0.97179  0.52937  0.25061  1.0000
  C   C25       1.0  0.97550  0.55921  0.25049  1.0000
  N   N7        1.0  0.00010  0.57389  0.25040  1.0000
  C   C26       1.0  0.94885  0.57297  0.25049  1.0000
  C   C27       1.0  0.92820  0.55233  0.25062  1.0000
  C   C28       1.0  0.94195  0.52567  0.25071  1.0000
  C   C29       1.0  0.89891  0.55901  0.25062  1.0000
  C   C30       1.0  0.89123  0.58839  0.25050  1.0000
  C   C31       1.0  0.91282  0.60997  0.25042  1.0000
  C   C32       1.0  0.94220  0.60227  0.25041  1.0000
  N   N8        1.0  0.92727  0.50078  0.25085  1.0000
  H   H1        1.0  0.88457  0.45738  0.25084  1.0000
  O   O1        1.0  0.86659  0.40653  0.25074  1.0000
  O   O2        1.0  0.90610  0.36700  0.25059  1.0000
  H   H2        1.0  0.95696  0.38498  0.25051  1.0000
  H   H3        1.0  0.04382  0.38497  0.25040  1.0000
  O   O3        1.0  0.09467  0.36702  0.25042  1.0000
  O   O4        1.0  0.13418  0.40656  0.25041  1.0000
  H   H4        1.0  0.11618  0.45741  0.25056  1.0000
  H   H5        1.0  0.04378  0.61659  0.25044  1.0000
  O   O5        1.0  0.09462  0.63458  0.25060  1.0000
  O   O6        1.0  0.13415  0.59506  0.25074  1.0000
  H   H6        1.0  0.11618  0.54421  0.25077  1.0000
  H   H7        1.0  0.88458  0.54421  0.25069  1.0000
  O   O7        1.0  0.86662  0.59507  0.25046  1.0000
  O   O8        1.0  0.90616  0.63459  0.25036  1.0000
  H   H8        1.0  0.95700  0.61659  0.25034  1.0000
  Ni  Ni1       1.0  0.00010  0.50078  0.25068  1.0000
  C   C33       1.0  0.10187  0.55900  0.75064  1.0000
  C   C34       1.0  0.10957  0.58838  0.75058  1.0000
  C   C35       1.0  0.08798  0.60996  0.75049  1.0000
  C   C36       1.0  0.05860  0.60227  0.75044  1.0000
  C   C37       1.0  0.05193  0.57298  0.75049  1.0000
  C   C38       1.0  0.07258  0.55234  0.75061  1.0000
  C   C39       1.0  0.05882  0.52568  0.75064  1.0000
  N   N9        1.0  0.02898  0.52938  0.75055  1.0000
  C   C40       1.0  0.02528  0.55923  0.75046  1.0000
  N   N10       1.0  0.00010  0.57390  0.75033  1.0000
  C   C41       1.0  0.97550  0.55923  0.75035  1.0000
  N   N11       1.0  0.97180  0.52938  0.75043  1.0000
  C   C42       1.0  0.94196  0.52567  0.75048  1.0000
  C   C43       1.0  0.92820  0.55233  0.75039  1.0000
  C   C44       1.0  0.94884  0.57298  0.75032  1.0000
  N   N12       1.0  0.97180  0.47220  0.75049  1.0000
  C   C45       1.0  0.94196  0.47590  0.75056  1.0000
  N   N13       1.0  0.92728  0.50079  0.75060  1.0000
  C   C46       1.0  0.92821  0.44924  0.75051  1.0000
  C   C47       1.0  0.94885  0.42860  0.75040  1.0000
  C   C48       1.0  0.97550  0.44236  0.75037  1.0000
  C   C49       1.0  0.94216  0.60227  0.75028  1.0000
  C   C50       1.0  0.91277  0.60994  0.75028  1.0000
  C   C51       1.0  0.89120  0.58835  0.75030  1.0000
  C   C52       1.0  0.89891  0.55898  0.75038  1.0000
  C   C53       1.0  0.94219  0.39930  0.75035  1.0000
  C   C54       1.0  0.91281  0.39161  0.75043  1.0000
  C   C55       1.0  0.89123  0.41319  0.75052  1.0000
  C   C56       1.0  0.89891  0.44257  0.75055  1.0000
  N   N14       1.0  0.02898  0.47220  0.75046  1.0000
  C   C57       1.0  0.02527  0.44236  0.75034  1.0000
  N   N15       1.0  0.00010  0.42768  0.75024  1.0000
  C   C58       1.0  0.05192  0.42860  0.75034  1.0000
  C   C59       1.0  0.07257  0.44924  0.75047  1.0000
  C   C60       1.0  0.05882  0.47590  0.75056  1.0000
  C   C61       1.0  0.10186  0.44257  0.75047  1.0000
  C   C62       1.0  0.10954  0.41319  0.75035  1.0000
  C   C63       1.0  0.08795  0.39161  0.75027  1.0000
  C   C64       1.0  0.05857  0.39931  0.75026  1.0000
  N   N16       1.0  0.07349  0.50079  0.75070  1.0000
  H   H9        1.0  0.11619  0.54419  0.75070  1.0000
  O   O9        1.0  0.13418  0.59505  0.75060  1.0000
  O   O10       1.0  0.09466  0.63458  0.75045  1.0000
  H   H10       1.0  0.04380  0.61660  0.75037  1.0000
  H   H11       1.0  0.95695  0.61660  0.75026  1.0000
  O   O11       1.0  0.90609  0.63455  0.75028  1.0000
  O   O12       1.0  0.86659  0.59501  0.75026  1.0000
  H   H12       1.0  0.88459  0.54417  0.75040  1.0000
  H   H13       1.0  0.95699  0.38498  0.75027  1.0000
  O   O13       1.0  0.90615  0.36699  0.75043  1.0000
  O   O14       1.0  0.86662  0.40652  0.75057  1.0000
  H   H14       1.0  0.88458  0.45737  0.75061  1.0000
  H   H15       1.0  0.11619  0.45737  0.75054  1.0000
  O   O15       1.0  0.13415  0.40651  0.75031  1.0000
  O   O16       1.0  0.09461  0.36699  0.75020  1.0000
  H   H16       1.0  0.04377  0.38499  0.75019  1.0000
  Ni  Ni2       1.0  0.00010  0.50079  0.75053  1.0000
  C   C65       1.0  0.25024  0.94258  0.39897  1.0000
  C   C66       1.0  0.25031  0.91320  0.39128  1.0000
  C   C67       1.0  0.25040  0.89161  0.41286  1.0000
  C   C68       1.0  0.25044  0.89930  0.44224  1.0000
  C   C69       1.0  0.25039  0.92860  0.44891  1.0000
  C   C70       1.0  0.25027  0.94924  0.42827  1.0000
  C   C71       1.0  0.25024  0.97590  0.44202  1.0000
  N   N17       1.0  0.25033  0.97219  0.47186  1.0000
  C   C72       1.0  0.25042  0.94235  0.47557  1.0000
  N   N18       1.0  0.25054  0.92767  0.50046  1.0000
  C   C73       1.0  0.25053  0.94234  0.52535  1.0000
  N   N19       1.0  0.25044  0.97219  0.52904  1.0000
  C   C74       1.0  0.25040  0.97590  0.55889  1.0000
  C   C75       1.0  0.25048  0.94924  0.57265  1.0000
  C   C76       1.0  0.25055  0.92859  0.55201  1.0000
  N   N20       1.0  0.25038  0.02937  0.52904  1.0000
  C   C77       1.0  0.25031  0.02567  0.55889  1.0000
  N   N21       1.0  0.25027  0.00010  0.57357  1.0000
  C   C78       1.0  0.25036  0.05233  0.57264  1.0000
  C   C79       1.0  0.25047  0.07297  0.55199  1.0000
  C   C80       1.0  0.25050  0.05921  0.52534  1.0000
  C   C81       1.0  0.25059  0.89930  0.55869  1.0000
  C   C82       1.0  0.25059  0.89162  0.58807  1.0000
  C   C83       1.0  0.25057  0.91322  0.60965  1.0000
  C   C84       1.0  0.25050  0.94259  0.60194  1.0000
  C   C85       1.0  0.25052  0.10227  0.55865  1.0000
  C   C86       1.0  0.25044  0.10996  0.58803  1.0000
  C   C87       1.0  0.25035  0.08838  0.60961  1.0000
  C   C88       1.0  0.25031  0.05900  0.60193  1.0000
  N   N22       1.0  0.25041  0.02937  0.47187  1.0000
  C   C89       1.0  0.25054  0.05921  0.47557  1.0000
  N   N23       1.0  0.25063  0.07389  0.50045  1.0000
  C   C90       1.0  0.25053  0.07297  0.44892  1.0000
  C   C91       1.0  0.25040  0.05233  0.42827  1.0000
  C   C92       1.0  0.25031  0.02567  0.44202  1.0000
  C   C93       1.0  0.25040  0.05901  0.39898  1.0000
  C   C94       1.0  0.25053  0.08839  0.39130  1.0000
  C   C95       1.0  0.25061  0.10997  0.41289  1.0000
  C   C96       1.0  0.25061  0.10227  0.44226  1.0000
  N   N24       1.0  0.25018  0.00010  0.42735  1.0000
  H   H17       1.0  0.25018  0.95739  0.38465  1.0000
  O   O17       1.0  0.25028  0.90653  0.36666  1.0000
  O   O18       1.0  0.25043  0.86700  0.40618  1.0000
  H   H18       1.0  0.25051  0.88498  0.45704  1.0000
  H   H19       1.0  0.25062  0.88497  0.54390  1.0000
  O   O19       1.0  0.25060  0.86701  0.59476  1.0000
  O   O20       1.0  0.25062  0.90656  0.63426  1.0000
  H   H20       1.0  0.25047  0.95740  0.61626  1.0000
  H   H21       1.0  0.25059  0.11659  0.54385  1.0000
  O   O21       1.0  0.25043  0.13457  0.59470  1.0000
  O   O22       1.0  0.25029  0.09505  0.63423  1.0000
  H   H22       1.0  0.25025  0.04420  0.61626  1.0000
  H   H23       1.0  0.25034  0.04421  0.38465  1.0000
  O   O23       1.0  0.25057  0.09507  0.36669  1.0000
  O   O24       1.0  0.25067  0.13459  0.40622  1.0000
  H   H24       1.0  0.25068  0.11659  0.45707  1.0000
  Ni  Ni3       1.0  0.25035  0.00010  0.50045  1.0000
  C   C97       1.0  0.60187  0.75091  0.94225  1.0000
  C   C98       1.0  0.60957  0.75084  0.91287  1.0000
  C   C99       1.0  0.58798  0.75075  0.89129  1.0000
  C   C100      1.0  0.55860  0.75071  0.89898  1.0000
  C   C101      1.0  0.55193  0.75076  0.92827  1.0000
  C   C102      1.0  0.57258  0.75088  0.94891  1.0000
  C   C103      1.0  0.55882  0.75091  0.97557  1.0000
  N   N25       1.0  0.52898  0.75082  0.97187  1.0000
  C   C104      1.0  0.52528  0.75073  0.94202  1.0000
  N   N26       1.0  0.50039  0.75061  0.92735  1.0000
  C   C105      1.0  0.47550  0.75063  0.94202  1.0000
  N   N27       1.0  0.47180  0.75072  0.97187  1.0000
  C   C106      1.0  0.44196  0.75076  0.97557  1.0000
  C   C107      1.0  0.42820  0.75067  0.94892  1.0000
  C   C108      1.0  0.44884  0.75060  0.92827  1.0000
  N   N28       1.0  0.47180  0.75077  0.02905  1.0000
  C   C109      1.0  0.44196  0.75085  0.02535  1.0000
  N   N29       1.0  0.42728  0.75089  0.00010  1.0000
  C   C110      1.0  0.42821  0.75080  0.05201  1.0000
  C   C111      1.0  0.44885  0.75069  0.07265  1.0000
  C   C112      1.0  0.47550  0.75065  0.05889  1.0000
  C   C113      1.0  0.44216  0.75056  0.89898  1.0000
  C   C114      1.0  0.41278  0.75056  0.89131  1.0000
  C   C115      1.0  0.39120  0.75058  0.91290  1.0000
  C   C116      1.0  0.39891  0.75066  0.94227  1.0000
  C   C117      1.0  0.44219  0.75064  0.10194  1.0000
  C   C118      1.0  0.41282  0.75072  0.10963  1.0000
  C   C119      1.0  0.39123  0.75081  0.08805  1.0000
  C   C120      1.0  0.39892  0.75085  0.05867  1.0000
  N   N30       1.0  0.52898  0.75074  0.02904  1.0000
  C   C121      1.0  0.52527  0.75062  0.05889  1.0000
  N   N31       1.0  0.50039  0.75053  0.07356  1.0000
  C   C122      1.0  0.55192  0.75063  0.07264  1.0000
  C   C123      1.0  0.57257  0.75076  0.05200  1.0000
  C   C124      1.0  0.55882  0.75084  0.02534  1.0000
  C   C125      1.0  0.60186  0.75075  0.05868  1.0000
  C   C126      1.0  0.60954  0.75063  0.08806  1.0000
  C   C127      1.0  0.58795  0.75055  0.10964  1.0000
  C   C128      1.0  0.55858  0.75054  0.10194  1.0000
  N   N32       1.0  0.57349  0.75098  0.00010  1.0000
  H   H25       1.0  0.61619  0.75097  0.95706  1.0000
  O   O25       1.0  0.63418  0.75087  0.90621  1.0000
  O   O26       1.0  0.59466  0.75072  0.86668  1.0000
  H   H26       1.0  0.54380  0.75064  0.88465  1.0000
  H   H27       1.0  0.45695  0.75053  0.88465  1.0000
  O   O27       1.0  0.40609  0.75055  0.86670  1.0000
  O   O28       1.0  0.36659  0.75054  0.90624  1.0000
  H   H28       1.0  0.38459  0.75069  0.95708  1.0000
  H   H29       1.0  0.45699  0.75057  0.11626  1.0000
  O   O29       1.0  0.40615  0.75073  0.13425  1.0000
  O   O30       1.0  0.36662  0.75087  0.09473  1.0000
  H   H30       1.0  0.38459  0.75091  0.04388  1.0000
  H   H31       1.0  0.61619  0.75082  0.04388  1.0000
  O   O31       1.0  0.63415  0.75059  0.09474  1.0000
  O   O32       1.0  0.59462  0.75049  0.13425  1.0000
  H   H32       1.0  0.54377  0.75047  0.11626  1.0000
  Ni  Ni4       1.0  0.50039  0.75081  0.00010  1.0000
  C   C129      1.0  0.75004  0.94257  0.39896  1.0000
  C   C130      1.0  0.75011  0.91319  0.39127  1.0000
  C   C131      1.0  0.75020  0.89161  0.41285  1.0000
  C   C132      1.0  0.75025  0.89929  0.44224  1.0000
  C   C133      1.0  0.75019  0.92859  0.44890  1.0000
  C   C134      1.0  0.75007  0.94923  0.42826  1.0000
  C   C135      1.0  0.75004  0.97589  0.44202  1.0000
  N   N33       1.0  0.75013  0.97218  0.47186  1.0000
  C   C136      1.0  0.75022  0.94234  0.47556  1.0000
  N   N34       1.0  0.75035  0.92766  0.50045  1.0000
  C   C137      1.0  0.75033  0.94233  0.52534  1.0000
  N   N35       1.0  0.75024  0.97218  0.52904  1.0000
  C   C138      1.0  0.75020  0.97588  0.55888  1.0000
  C   C139      1.0  0.75028  0.94923  0.57264  1.0000
  C   C140      1.0  0.75035  0.92858  0.55200  1.0000
  N   N36       1.0  0.75018  0.02936  0.52904  1.0000
  C   C141      1.0  0.75010  0.02566  0.55888  1.0000
  N   N37       1.0  0.75006  0.00010  0.57356  1.0000
  C   C142      1.0  0.75015  0.05232  0.57263  1.0000
  C   C143      1.0  0.75027  0.07296  0.55199  1.0000
  C   C144      1.0  0.75030  0.05920  0.52533  1.0000
  C   C145      1.0  0.75040  0.89929  0.55868  1.0000
  C   C146      1.0  0.75039  0.89161  0.58807  1.0000
  C   C147      1.0  0.75037  0.91320  0.60964  1.0000
  C   C148      1.0  0.75030  0.94258  0.60193  1.0000
  C   C149      1.0  0.75031  0.10225  0.55865  1.0000
  C   C150      1.0  0.75023  0.10995  0.58803  1.0000
  C   C151      1.0  0.75014  0.08836  0.60961  1.0000
  C   C152      1.0  0.75011  0.05898  0.60193  1.0000
  N   N38       1.0  0.75021  0.02936  0.47186  1.0000
  C   C153      1.0  0.75033  0.05920  0.47556  1.0000
  N   N39       1.0  0.75042  0.07388  0.50045  1.0000
  C   C154      1.0  0.75032  0.07296  0.44891  1.0000
  C   C155      1.0  0.75019  0.05232  0.42827  1.0000
  C   C156      1.0  0.75011  0.02566  0.44202  1.0000
  C   C157      1.0  0.75020  0.05900  0.39897  1.0000
  C   C158      1.0  0.75032  0.08838  0.39129  1.0000
  C   C159      1.0  0.75040  0.10996  0.41288  1.0000
  C   C160      1.0  0.75041  0.10226  0.44226  1.0000
  N   N40       1.0  0.74997  0.00010  0.42734  1.0000
  H   H33       1.0  0.74998  0.95738  0.38464  1.0000
  O   O33       1.0  0.75009  0.90653  0.36665  1.0000
  O   O34       1.0  0.75024  0.86699  0.40617  1.0000
  H   H34       1.0  0.75031  0.88497  0.45704  1.0000
  H   H35       1.0  0.75042  0.88496  0.54389  1.0000
  O   O35       1.0  0.75040  0.86700  0.59475  1.0000
  O   O36       1.0  0.75042  0.90654  0.63426  1.0000
  H   H36       1.0  0.75027  0.95739  0.61625  1.0000
  H   H37       1.0  0.75038  0.11658  0.54385  1.0000
  O   O37       1.0  0.75022  0.13456  0.59469  1.0000
  O   O38       1.0  0.75009  0.09504  0.63422  1.0000
  H   H38       1.0  0.75005  0.04419  0.61626  1.0000
  H   H39       1.0  0.75013  0.04420  0.38464  1.0000
  O   O39       1.0  0.75036  0.09506  0.36668  1.0000
  O   O40       1.0  0.75046  0.13458  0.40622  1.0000
  H   H40       1.0  0.75048  0.11658  0.45707  1.0000
  Ni  Ni5       1.0  0.75014  0.00010  0.50045  1.0000
  C   C161      1.0  0.39889  0.25112  0.05866  1.0000
  C   C162      1.0  0.39120  0.25106  0.08804  1.0000
  C   C163      1.0  0.41278  0.25096  0.10962  1.0000
  C   C164      1.0  0.44216  0.25092  0.10193  1.0000
  C   C165      1.0  0.44883  0.25097  0.07264  1.0000
  C   C166      1.0  0.42819  0.25109  0.05200  1.0000
  C   C167      1.0  0.44194  0.25112  0.02534  1.0000
  N   N41       1.0  0.47178  0.25103  0.02905  1.0000
  C   C168      1.0  0.47549  0.25094  0.05889  1.0000
  N   N42       1.0  0.50038  0.25081  0.07357  1.0000
  C   C169      1.0  0.52527  0.25083  0.05889  1.0000
  N   N43       1.0  0.52896  0.25092  0.02905  1.0000
  C   C170      1.0  0.55881  0.25096  0.02534  1.0000
  C   C171      1.0  0.57256  0.25087  0.05199  1.0000
  C   C172      1.0  0.55193  0.25080  0.07264  1.0000
  N   N44       1.0  0.52897  0.25097  0.97187  1.0000
  C   C173      1.0  0.55881  0.25105  0.97557  1.0000
  N   N45       1.0  0.57349  0.25109  0.00010  1.0000
  C   C174      1.0  0.57256  0.25099  0.94891  1.0000
  C   C175      1.0  0.55192  0.25088  0.92827  1.0000
  C   C176      1.0  0.52526  0.25085  0.94203  1.0000
  C   C177      1.0  0.55861  0.25076  0.10193  1.0000
  C   C178      1.0  0.58799  0.25076  0.10961  1.0000
  C   C179      1.0  0.60956  0.25078  0.08802  1.0000
  C   C180      1.0  0.60186  0.25086  0.05864  1.0000
  C   C181      1.0  0.55858  0.25083  0.89897  1.0000
  C   C182      1.0  0.58795  0.25091  0.89128  1.0000
  C   C183      1.0  0.60954  0.25101  0.91286  1.0000
  C   C184      1.0  0.60185  0.25104  0.94224  1.0000
  N   N46       1.0  0.47179  0.25095  0.97187  1.0000
  C   C185      1.0  0.47549  0.25082  0.94203  1.0000
  N   N47       1.0  0.50038  0.25073  0.92735  1.0000
  C   C186      1.0  0.44884  0.25083  0.92827  1.0000
  C   C187      1.0  0.42820  0.25096  0.94891  1.0000
  C   C188      1.0  0.44195  0.25105  0.97557  1.0000
  C   C189      1.0  0.39891  0.25096  0.94224  1.0000
  C   C190      1.0  0.39123  0.25084  0.91285  1.0000
  C   C191      1.0  0.41282  0.25076  0.89127  1.0000
  C   C192      1.0  0.44219  0.25075  0.89897  1.0000
  N   N48       1.0  0.42727  0.25119  0.00010  1.0000
  H   H41       1.0  0.38457  0.25118  0.04385  1.0000
  O   O41       1.0  0.36658  0.25108  0.09471  1.0000
  O   O42       1.0  0.40610  0.25093  0.13423  1.0000
  H   H42       1.0  0.45696  0.25085  0.11626  1.0000
  H   H43       1.0  0.54381  0.25073  0.11627  1.0000
  O   O43       1.0  0.59467  0.25075  0.13422  1.0000
  O   O44       1.0  0.63418  0.25073  0.09467  1.0000
  H   H44       1.0  0.61618  0.25088  0.04383  1.0000
  H   H45       1.0  0.54378  0.25076  0.88465  1.0000
  O   O45       1.0  0.59462  0.25092  0.86667  1.0000
  O   O46       1.0  0.63415  0.25106  0.90619  1.0000
  H   H46       1.0  0.61618  0.25110  0.95704  1.0000
  H   H47       1.0  0.38458  0.25103  0.95703  1.0000
  O   O47       1.0  0.36662  0.25080  0.90617  1.0000
  O   O48       1.0  0.40615  0.25069  0.86666  1.0000
  H   H48       1.0  0.45700  0.25068  0.88466  1.0000
  Ni  Ni6       1.0  0.50037  0.25101  0.00010  1.0000
  C   C193      1.0  0.20180  0.27812  0.25046  1.0000
  C   C194      1.0  0.22315  0.29946  0.25046  1.0000
  C   C195      1.0  0.21537  0.32864  0.25045  1.0000
  C   C196      1.0  0.18623  0.33655  0.25044  1.0000
  C   C197      1.0  0.16478  0.31516  0.25045  1.0000
  C   C198      1.0  0.17264  0.28599  0.25046  1.0000
  O   O49       1.0  0.20942  0.24950  0.25047  1.0000
  O   O50       1.0  0.25174  0.29175  0.25047  1.0000
  H   H49       1.0  0.23122  0.34440  0.25045  1.0000
  O   O51       1.0  0.17868  0.36523  0.25043  1.0000
  O   O52       1.0  0.13610  0.32277  0.25044  1.0000
  H   H50       1.0  0.15682  0.27020  0.25046  1.0000
  Cu  Cu1       1.0  0.13573  0.36577  0.25043  1.0000
  C   C199      1.0  0.20177  0.72350  0.75050  1.0000
  C   C200      1.0  0.22313  0.70216  0.75050  1.0000
  C   C201      1.0  0.21536  0.67299  0.75051  1.0000
  C   C202      1.0  0.18621  0.66507  0.75051  1.0000
  C   C203      1.0  0.16476  0.68645  0.75051  1.0000
  C   C204      1.0  0.17261  0.71562  0.75051  1.0000
  O   O53       1.0  0.20939  0.75212  0.75050  1.0000
  O   O54       1.0  0.25171  0.70988  0.75050  1.0000
  H   H51       1.0  0.23120  0.65723  0.75051  1.0000
  O   O55       1.0  0.17867  0.63638  0.75052  1.0000
  O   O56       1.0  0.13608  0.67884  0.75052  1.0000
  H   H52       1.0  0.15680  0.73141  0.75051  1.0000
  Cu  Cu2       1.0  0.13572  0.63584  0.75052  1.0000
  C   C205      1.0  0.77771  0.70219  0.25044  1.0000
  C   C206      1.0  0.79905  0.72355  0.25044  1.0000
  C   C207      1.0  0.82822  0.71578  0.25043  1.0000
  C   C208      1.0  0.83613  0.68663  0.25043  1.0000
  C   C209      1.0  0.81475  0.66518  0.25043  1.0000
  C   C210      1.0  0.78558  0.67303  0.25044  1.0000
  O   O57       1.0  0.74909  0.70982  0.25045  1.0000
  O   O58       1.0  0.79133  0.75214  0.25045  1.0000
  H   H53       1.0  0.84398  0.73162  0.25043  1.0000
  O   O59       1.0  0.86482  0.67909  0.25042  1.0000
  O   O60       1.0  0.82236  0.63650  0.25042  1.0000
  H   H54       1.0  0.76979  0.65722  0.25044  1.0000
  Cu  Cu3       1.0  0.86536  0.63613  0.25041  1.0000
  C   C211      1.0  0.79899  0.27809  0.75045  1.0000
  C   C212      1.0  0.77764  0.29944  0.75045  1.0000
  C   C213      1.0  0.78542  0.32861  0.75046  1.0000
  C   C214      1.0  0.81457  0.33651  0.75047  1.0000
  C   C215      1.0  0.83601  0.31513  0.75047  1.0000
  C   C216      1.0  0.82815  0.28595  0.75046  1.0000
  O   O61       1.0  0.79135  0.24947  0.75044  1.0000
  O   O62       1.0  0.74905  0.29173  0.75044  1.0000
  H   H55       1.0  0.76958  0.34437  0.75046  1.0000
  O   O63       1.0  0.82212  0.36520  0.75048  1.0000
  O   O64       1.0  0.86469  0.32273  0.75048  1.0000
  H   H56       1.0  0.84396  0.27016  0.75046  1.0000
  Cu  Cu4       1.0  0.86507  0.36573  0.75049  1.0000
  C   C217      1.0  0.25043  0.20221  0.27778  1.0000
  C   C218      1.0  0.25044  0.22356  0.29912  1.0000
  C   C219      1.0  0.25047  0.21579  0.32829  1.0000
  C   C220      1.0  0.25051  0.18664  0.33620  1.0000
  C   C221      1.0  0.25050  0.16519  0.31482  1.0000
  C   C222      1.0  0.25047  0.17305  0.28565  1.0000
  O   O65       1.0  0.25040  0.20984  0.24916  1.0000
  O   O66       1.0  0.25040  0.25216  0.29140  1.0000
  H   H57       1.0  0.25047  0.23163  0.34405  1.0000
  O   O67       1.0  0.25054  0.17909  0.36489  1.0000
  O   O68       1.0  0.25054  0.13651  0.32243  1.0000
  H   H58       1.0  0.25047  0.15723  0.26986  1.0000
  Cu  Cu5       1.0  0.25058  0.13614  0.36543  1.0000
  C   C223      1.0  0.27767  0.75076  0.79910  1.0000
  C   C224      1.0  0.29901  0.75076  0.77775  1.0000
  C   C225      1.0  0.32818  0.75072  0.78552  1.0000
  C   C226      1.0  0.33609  0.75068  0.81467  1.0000
  C   C227      1.0  0.31471  0.75068  0.83612  1.0000
  C   C228      1.0  0.28554  0.75072  0.82826  1.0000
  O   O69       1.0  0.24905  0.75080  0.79148  1.0000
  O   O70       1.0  0.29130  0.75080  0.74916  1.0000
  H   H59       1.0  0.34394  0.75072  0.76968  1.0000
  O   O71       1.0  0.36478  0.75064  0.82221  1.0000
  O   O72       1.0  0.32232  0.75064  0.86480  1.0000
  H   H60       1.0  0.26975  0.75072  0.84408  1.0000
  Cu  Cu6       1.0  0.36532  0.75059  0.86517  1.0000
  C   C229      1.0  0.75035  0.77810  0.29904  1.0000
  C   C230      1.0  0.75035  0.79944  0.27768  1.0000
  C   C231      1.0  0.75031  0.82862  0.28546  1.0000
  C   C232      1.0  0.75028  0.83652  0.31461  1.0000
  C   C233      1.0  0.75028  0.81514  0.33606  1.0000
  C   C234      1.0  0.75032  0.78596  0.32820  1.0000
  O   O73       1.0  0.75039  0.74948  0.29141  1.0000
  O   O74       1.0  0.75038  0.79173  0.24909  1.0000
  H   H61       1.0  0.75031  0.84438  0.26962  1.0000
  O   O75       1.0  0.75024  0.86521  0.32216  1.0000
  O   O76       1.0  0.75025  0.82274  0.36474  1.0000
  H   H62       1.0  0.75032  0.77017  0.34401  1.0000
  Cu  Cu7       1.0  0.75020  0.86574  0.36511  1.0000
  C   C235      1.0  0.72306  0.25082  0.79905  1.0000
  C   C236      1.0  0.70172  0.25082  0.77770  1.0000
  C   C237      1.0  0.67255  0.25085  0.78547  1.0000
  C   C238      1.0  0.66464  0.25088  0.81462  1.0000
  C   C239      1.0  0.68602  0.25088  0.83607  1.0000
  C   C240      1.0  0.71519  0.25085  0.82821  1.0000
  O   O77       1.0  0.75168  0.25078  0.79143  1.0000
  O   O78       1.0  0.70944  0.25079  0.74911  1.0000
  H   H63       1.0  0.65679  0.25085  0.76963  1.0000
  O   O79       1.0  0.63595  0.25092  0.82216  1.0000
  O   O80       1.0  0.67841  0.25091  0.86475  1.0000
  H   H64       1.0  0.73098  0.25085  0.84403  1.0000
  Cu  Cu8       1.0  0.63542  0.25095  0.86512  1.0000
  C   C241      1.0  0.25041  0.79942  0.72319  1.0000
  C   C242      1.0  0.25041  0.77806  0.70185  1.0000
  C   C243      1.0  0.25044  0.78583  0.67268  1.0000
  C   C244      1.0  0.25048  0.81498  0.66477  1.0000
  C   C245      1.0  0.25048  0.83643  0.68615  1.0000
  C   C246      1.0  0.25045  0.82857  0.71532  1.0000
  O   O81       1.0  0.25037  0.79179  0.75181  1.0000
  O   O82       1.0  0.25037  0.74947  0.70957  1.0000
  H   H65       1.0  0.25044  0.76999  0.65692  1.0000
  O   O83       1.0  0.25052  0.82253  0.63608  1.0000
  O   O84       1.0  0.25052  0.86511  0.67854  1.0000
  H   H66       1.0  0.25045  0.84439  0.73111  1.0000
  Cu  Cu9       1.0  0.25056  0.86548  0.63554  1.0000
  C   C247      1.0  0.70179  0.75075  0.22314  1.0000
  C   C248      1.0  0.72314  0.75075  0.20179  1.0000
  C   C249      1.0  0.71535  0.75071  0.17262  1.0000
  C   C250      1.0  0.68620  0.75067  0.16472  1.0000
  C   C251      1.0  0.66477  0.75067  0.18611  1.0000
  C   C252      1.0  0.67263  0.75070  0.21528  1.0000
  O   O85       1.0  0.70943  0.75078  0.25176  1.0000
  O   O86       1.0  0.75173  0.75079  0.20949  1.0000
  H   H67       1.0  0.73119  0.75071  0.15686  1.0000
  O   O87       1.0  0.67865  0.75063  0.13604  1.0000
  O   O88       1.0  0.63608  0.75063  0.17851  1.0000
  H   H68       1.0  0.65682  0.75070  0.23108  1.0000
  Cu  Cu10      1.0  0.63570  0.75058  0.13552  1.0000
  C   C253      1.0  0.75034  0.20217  0.72313  1.0000
  C   C254      1.0  0.75034  0.22353  0.70179  1.0000
  C   C255      1.0  0.75031  0.21576  0.67262  1.0000
  C   C256      1.0  0.75027  0.18661  0.66471  1.0000
  C   C257      1.0  0.75027  0.16516  0.68609  1.0000
  C   C258      1.0  0.75030  0.17301  0.71526  1.0000
  O   O89       1.0  0.75037  0.20980  0.75175  1.0000
  O   O90       1.0  0.75037  0.25212  0.70951  1.0000
  H   H69       1.0  0.75031  0.23160  0.65686  1.0000
  O   O91       1.0  0.75024  0.17906  0.63602  1.0000
  O   O92       1.0  0.75023  0.13647  0.67849  1.0000
  H   H70       1.0  0.75030  0.15720  0.73106  1.0000
  Cu  Cu11      1.0  0.75019  0.13611  0.63549  1.0000
  C   C259      1.0  0.27770  0.25085  0.20186  1.0000
  C   C260      1.0  0.29904  0.25085  0.22321  1.0000
  C   C261      1.0  0.32821  0.25088  0.21543  1.0000
  C   C262      1.0  0.33611  0.25091  0.18628  1.0000
  C   C263      1.0  0.31473  0.25091  0.16484  1.0000
  C   C264      1.0  0.28556  0.25088  0.17270  1.0000
  O   O93       1.0  0.24908  0.25082  0.20950  1.0000
  O   O94       1.0  0.29133  0.25082  0.25181  1.0000
  H   H71       1.0  0.34397  0.25088  0.23127  1.0000
  O   O95       1.0  0.36480  0.25094  0.17873  1.0000
  O   O96       1.0  0.32233  0.25093  0.13616  1.0000
  H   H72       1.0  0.26976  0.25088  0.15689  1.0000
  Cu  Cu12      1.0  0.36532  0.25097  0.13578  1.0000
  C   C265      1.0  0.79898  0.72346  0.75043  1.0000
  C   C266      1.0  0.77762  0.70212  0.75043  1.0000
  C   C267      1.0  0.78540  0.67295  0.75040  1.0000
  C   C268      1.0  0.81454  0.66503  0.75037  1.0000
  C   C269      1.0  0.83599  0.68642  0.75037  1.0000
  C   C270      1.0  0.82814  0.71559  0.75040  1.0000
  O   O97       1.0  0.79135  0.75208  0.75046  1.0000
  O   O98       1.0  0.74903  0.70984  0.75047  1.0000
  H   H73       1.0  0.76955  0.65719  0.75040  1.0000
  O   O99       1.0  0.82208  0.63635  0.75034  1.0000
  O   O100      1.0  0.86467  0.67881  0.75034  1.0000
  H   H74       1.0  0.84395  0.73138  0.75040  1.0000
  Cu  Cu13      1.0  0.86504  0.63581  0.75030  1.0000
  C   C271      1.0  0.79898  0.27809  0.25048  1.0000
  C   C272      1.0  0.77763  0.29943  0.25048  1.0000
  C   C273      1.0  0.78540  0.32861  0.25051  1.0000
  C   C274      1.0  0.81455  0.33652  0.25055  1.0000
  C   C275      1.0  0.83599  0.31513  0.25055  1.0000
  C   C276      1.0  0.82814  0.28596  0.25052  1.0000
  O   O101      1.0  0.79135  0.24947  0.25045  1.0000
  O   O102      1.0  0.74904  0.29172  0.25044  1.0000
  H   H75       1.0  0.76956  0.34437  0.25051  1.0000
  O   O103      1.0  0.82209  0.36521  0.25058  1.0000
  O   O104      1.0  0.86468  0.32274  0.25058  1.0000
  H   H76       1.0  0.84395  0.27017  0.25052  1.0000
  Cu  Cu14      1.0  0.86505  0.36574  0.25062  1.0000
  C   C277      1.0  0.22307  0.29939  0.75041  1.0000
  C   C278      1.0  0.20173  0.27803  0.75041  1.0000
  C   C279      1.0  0.17256  0.28580  0.75038  1.0000
  C   C280      1.0  0.16464  0.31495  0.75035  1.0000
  C   C281      1.0  0.18602  0.33640  0.75035  1.0000
  C   C282      1.0  0.21519  0.32855  0.75038  1.0000
  O   O105      1.0  0.25169  0.29177  0.75044  1.0000
  O   O106      1.0  0.20945  0.24944  0.75044  1.0000
  H   H77       1.0  0.15680  0.26995  0.75038  1.0000
  O   O107      1.0  0.13596  0.32249  0.75032  1.0000
  O   O108      1.0  0.17841  0.36508  0.75032  1.0000
  H   H78       1.0  0.23098  0.34437  0.75038  1.0000
  Cu  Cu15      1.0  0.13541  0.36544  0.75029  1.0000
  C   C283      1.0  0.20178  0.72348  0.25048  1.0000
  C   C284      1.0  0.22313  0.70214  0.25049  1.0000
  C   C285      1.0  0.21535  0.67297  0.25052  1.0000
  C   C286      1.0  0.18620  0.66506  0.25055  1.0000
  C   C287      1.0  0.16476  0.68645  0.25055  1.0000
  C   C288      1.0  0.17262  0.71562  0.25052  1.0000
  O   O109      1.0  0.20941  0.75210  0.25045  1.0000
  O   O110      1.0  0.25172  0.70985  0.25045  1.0000
  H   H79       1.0  0.23119  0.65720  0.25052  1.0000
  O   O111      1.0  0.17865  0.63637  0.25059  1.0000
  O   O112      1.0  0.13607  0.67884  0.25058  1.0000
  H   H80       1.0  0.15681  0.73141  0.25052  1.0000
  Cu  Cu16      1.0  0.13570  0.63584  0.25063  1.0000
  C   C289      1.0  0.75038  0.79938  0.72316  1.0000
  C   C290      1.0  0.75038  0.77803  0.70182  1.0000
  C   C291      1.0  0.75039  0.78581  0.67265  1.0000
  C   C292      1.0  0.75039  0.81496  0.66474  1.0000
  C   C293      1.0  0.75039  0.83640  0.68613  1.0000
  C   C294      1.0  0.75038  0.82854  0.71530  1.0000
  O   O113      1.0  0.75037  0.79174  0.75178  1.0000
  O   O114      1.0  0.75037  0.74943  0.70953  1.0000
  H   H81       1.0  0.75039  0.76996  0.65689  1.0000
  O   O115      1.0  0.75040  0.82251  0.63606  1.0000
  O   O116      1.0  0.75040  0.86509  0.67852  1.0000
  H   H82       1.0  0.75038  0.84435  0.73109  1.0000
  Cu  Cu17      1.0  0.75040  0.86546  0.63553  1.0000
  C   C295      1.0  0.72308  0.25078  0.20184  1.0000
  C   C296      1.0  0.70173  0.25078  0.22319  1.0000
  C   C297      1.0  0.67256  0.25077  0.21541  1.0000
  C   C298      1.0  0.66466  0.25077  0.18626  1.0000
  C   C299      1.0  0.68605  0.25077  0.16482  1.0000
  C   C300      1.0  0.71521  0.25077  0.17268  1.0000
  O   O117      1.0  0.75170  0.25079  0.20947  1.0000
  O   O118      1.0  0.70944  0.25079  0.25178  1.0000
  H   H83       1.0  0.65680  0.25077  0.23125  1.0000
  O   O119      1.0  0.63598  0.25076  0.17871  1.0000
  O   O120      1.0  0.67844  0.25076  0.13613  1.0000
  H   H84       1.0  0.73101  0.25077  0.15687  1.0000
  Cu  Cu18      1.0  0.63545  0.25075  0.13575  1.0000
  C   C301      1.0  0.25039  0.22348  0.70184  1.0000
  C   C302      1.0  0.25039  0.20213  0.72320  1.0000
  C   C303      1.0  0.25039  0.17296  0.71542  1.0000
  C   C304      1.0  0.25038  0.16505  0.68627  1.0000
  C   C305      1.0  0.25038  0.18644  0.66482  1.0000
  C   C306      1.0  0.25038  0.21561  0.67268  1.0000
  O   O121      1.0  0.25039  0.25210  0.70947  1.0000
  O   O122      1.0  0.25040  0.20985  0.75179  1.0000
  H   H85       1.0  0.25039  0.15720  0.73126  1.0000
  O   O123      1.0  0.25038  0.13637  0.67872  1.0000
  O   O124      1.0  0.25037  0.17884  0.63614  1.0000
  H   H86       1.0  0.25038  0.23141  0.65687  1.0000
  Cu  Cu19      1.0  0.25037  0.13584  0.63577  1.0000
  C   C307      1.0  0.27770  0.75079  0.20184  1.0000
  C   C308      1.0  0.29904  0.75079  0.22320  1.0000
  C   C309      1.0  0.32821  0.75079  0.21543  1.0000
  C   C310      1.0  0.33612  0.75079  0.18628  1.0000
  C   C311      1.0  0.31475  0.75079  0.16484  1.0000
  C   C312      1.0  0.28557  0.75079  0.17269  1.0000
  O   O125      1.0  0.24908  0.75079  0.20947  1.0000
  O   O126      1.0  0.29132  0.75078  0.25179  1.0000
  H   H87       1.0  0.34397  0.75079  0.23128  1.0000
  O   O127      1.0  0.36481  0.75079  0.17875  1.0000
  O   O128      1.0  0.32236  0.75080  0.13615  1.0000
  H   H88       1.0  0.26978  0.75079  0.15687  1.0000
  Cu  Cu20      1.0  0.36535  0.75080  0.13579  1.0000
  C   C313      1.0  0.75038  0.20218  0.27776  1.0000
  C   C314      1.0  0.75038  0.22354  0.29910  1.0000
  C   C315      1.0  0.75039  0.21577  0.32827  1.0000
  C   C316      1.0  0.75039  0.18662  0.33619  1.0000
  C   C317      1.0  0.75039  0.16517  0.31481  1.0000
  C   C318      1.0  0.75039  0.17302  0.28563  1.0000
  O   O129      1.0  0.75038  0.20980  0.24914  1.0000
  O   O130      1.0  0.75038  0.25213  0.29138  1.0000
  H   H89       1.0  0.75039  0.23161  0.34403  1.0000
  O   O131      1.0  0.75040  0.17908  0.36487  1.0000
  O   O132      1.0  0.75040  0.13649  0.32242  1.0000
  H   H90       1.0  0.75039  0.15720  0.26985  1.0000
  Cu  Cu21      1.0  0.75041  0.13612  0.36542  1.0000
  C   C319      1.0  0.29899  0.25079  0.77776  1.0000
  C   C320      1.0  0.27764  0.25079  0.79910  1.0000
  C   C321      1.0  0.28542  0.25078  0.82827  1.0000
  C   C322      1.0  0.31457  0.25077  0.83618  1.0000
  C   C323      1.0  0.33601  0.25077  0.81479  1.0000
  C   C324      1.0  0.32815  0.25078  0.78562  1.0000
  O   O133      1.0  0.29136  0.25080  0.74914  1.0000
  O   O134      1.0  0.24905  0.25079  0.79139  1.0000
  H   H91       1.0  0.26958  0.25077  0.84403  1.0000
  O   O135      1.0  0.32212  0.25076  0.86486  1.0000
  O   O136      1.0  0.36470  0.25077  0.82239  1.0000
  H   H92       1.0  0.34396  0.25079  0.76982  1.0000
  Cu  Cu22      1.0  0.36507  0.25075  0.86539  1.0000
  C   C325      1.0  0.25039  0.79940  0.27776  1.0000
  C   C326      1.0  0.25038  0.77804  0.29910  1.0000
  C   C327      1.0  0.25038  0.78581  0.32827  1.0000
  C   C328      1.0  0.25037  0.81496  0.33618  1.0000
  C   C329      1.0  0.25038  0.83641  0.31479  1.0000
  C   C330      1.0  0.25038  0.82856  0.28562  1.0000
  O   O137      1.0  0.25039  0.79177  0.24913  1.0000
  O   O138      1.0  0.25039  0.74945  0.29138  1.0000
  H   H93       1.0  0.25037  0.76997  0.34403  1.0000
  O   O139      1.0  0.25037  0.82251  0.36486  1.0000
  O   O140      1.0  0.25037  0.86510  0.32240  1.0000
  H   H94       1.0  0.25038  0.84437  0.26983  1.0000
  Cu  Cu23      1.0  0.25036  0.86546  0.36540  1.0000
  C   C331      1.0  0.72307  0.75077  0.79907  1.0000
  C   C332      1.0  0.70174  0.75077  0.77771  1.0000
  C   C333      1.0  0.67256  0.75077  0.78549  1.0000
  C   C334      1.0  0.66466  0.75078  0.81464  1.0000
  C   C335      1.0  0.68604  0.75078  0.83608  1.0000
  C   C336      1.0  0.71521  0.75077  0.82823  1.0000
  O   O141      1.0  0.75170  0.75077  0.79144  1.0000
  O   O142      1.0  0.70945  0.75076  0.74912  1.0000
  H   H95       1.0  0.65680  0.75077  0.76965  1.0000
  O   O143      1.0  0.63597  0.75078  0.82219  1.0000
  O   O144      1.0  0.67843  0.75078  0.86477  1.0000
  H   H96       1.0  0.73100  0.75077  0.84404  1.0000
  Cu  Cu24      1.0  0.63544  0.75079  0.86514  1.0000
