data_image0
_chemical_formula_structural       FeC6O6FeC6O6FeC6O6FeC6O6C6O2HO2HCuC6O2HO2HCuC6O2HO2HCuC6O2HO2HCuC6O2HO2HCuC6O2HO2HCuC6O2HO2HCuC6O2HO2HCuC6O2HO2HCuC6O2HO2HCuC6O2HO2HCuC6O2HO2HCu
_chemical_formula_sum              "Fe4 C96 O72 H24 Cu12"
_cell_length_a       34.242
_cell_length_b       34.2422
_cell_length_c       34.242
_cell_angle_alpha    90
_cell_angle_beta     90.0001
_cell_angle_gamma    90

_space_group_name_H-M_alt    "P 1"
_space_group_IT_number       1

loop_
  _space_group_symop_operation_xyz
  'x, y, z'

loop_
  _atom_site_type_symbol
  _atom_site_label
  _atom_site_symmetry_multiplicity
  _atom_site_fract_x
  _atom_site_fract_y
  _atom_site_fract_z
  _atom_site_occupancy
  Fe  Fe1       1.0  0.12500  0.12500  0.12500  1.0000
  C   C1        1.0  0.10831  0.89169  0.34162  1.0000
  C   C2        1.0  0.09162  0.85831  0.35831  1.0000
  C   C3        1.0  0.10831  0.84162  0.39169  1.0000
  C   C4        1.0  0.14169  0.85831  0.40838  1.0000
  C   C5        1.0  0.15838  0.89169  0.39169  1.0000
  C   C6        1.0  0.14169  0.90838  0.35831  1.0000
  O   O1        1.0  0.09328  0.90671  0.31157  1.0000
  O   O2        1.0  0.06157  0.84329  0.34329  1.0000
  O   O3        1.0  0.09328  0.81157  0.40671  1.0000
  O   O4        1.0  0.15671  0.84329  0.43843  1.0000
  O   O5        1.0  0.18842  0.90671  0.40671  1.0000
  O   O6        1.0  0.15671  0.93843  0.34329  1.0000
  Fe  Fe2       1.0  0.37500  0.87500  0.62500  1.0000
  C   C7        1.0  0.39169  0.10831  0.84161  1.0000
  C   C8        1.0  0.40838  0.14169  0.85831  1.0000
  C   C9        1.0  0.39169  0.15839  0.89169  1.0000
  C   C10       1.0  0.35831  0.14169  0.90838  1.0000
  C   C11       1.0  0.34162  0.10831  0.89169  1.0000
  C   C12       1.0  0.35831  0.09162  0.85831  1.0000
  O   O7        1.0  0.40671  0.09329  0.81157  1.0000
  O   O8        1.0  0.43843  0.15672  0.84328  1.0000
  O   O9        1.0  0.40672  0.18843  0.90671  1.0000
  O   O10       1.0  0.34329  0.15672  0.93842  1.0000
  O   O11       1.0  0.31158  0.09329  0.90671  1.0000
  O   O12       1.0  0.34329  0.06158  0.84328  1.0000
  Fe  Fe3       1.0  0.62500  0.37500  0.87500  1.0000
  C   C13       1.0  0.85831  0.40838  0.14169  1.0000
  C   C14       1.0  0.84162  0.39169  0.10831  1.0000
  C   C15       1.0  0.85831  0.35831  0.09162  1.0000
  C   C16       1.0  0.89169  0.34162  0.10831  1.0000
  C   C17       1.0  0.90838  0.35831  0.14169  1.0000
  C   C18       1.0  0.89169  0.39169  0.15839  1.0000
  O   O13       1.0  0.84329  0.43842  0.15672  1.0000
  O   O14       1.0  0.81157  0.40671  0.09329  1.0000
  O   O15       1.0  0.84329  0.34328  0.06158  1.0000
  O   O16       1.0  0.90671  0.31157  0.09329  1.0000
  O   O17       1.0  0.93843  0.34329  0.15672  1.0000
  O   O18       1.0  0.90671  0.40671  0.18843  1.0000
  Fe  Fe4       1.0  0.87500  0.62500  0.37500  1.0000
  C   C19       1.0  0.59161  0.64169  0.64169  1.0000
  C   C20       1.0  0.60831  0.60831  0.65838  1.0000
  C   C21       1.0  0.64169  0.59161  0.64169  1.0000
  C   C22       1.0  0.65838  0.60831  0.60831  1.0000
  C   C23       1.0  0.64169  0.64169  0.59162  1.0000
  C   C24       1.0  0.60831  0.65838  0.60831  1.0000
  O   O19       1.0  0.56157  0.65671  0.65671  1.0000
  O   O20       1.0  0.59328  0.59328  0.68843  1.0000
  O   O21       1.0  0.65671  0.56157  0.65671  1.0000
  O   O22       1.0  0.68842  0.59328  0.59329  1.0000
  O   O23       1.0  0.65671  0.65671  0.56157  1.0000
  O   O24       1.0  0.59328  0.68842  0.59329  1.0000
  C   C25       1.0  0.10387  0.06321  0.17622  1.0000
  C   C26       1.0  0.14625  0.07382  0.18681  1.0000
  C   C27       1.0  0.16748  0.05162  0.21962  1.0000
  C   C28       1.0  0.14640  0.01877  0.24193  1.0000
  C   C29       1.0  0.10389  0.00810  0.23135  1.0000
  C   C30       1.0  0.08274  0.03037  0.19850  1.0000
  O   O25       1.0  0.08304  0.08499  0.14403  1.0000
  O   O26       1.0  0.16697  0.10602  0.16496  1.0000
  H   H1        1.0  0.19885  0.05952  0.22740  1.0000
  O   O27       1.0  0.16738  0.99704  0.27415  1.0000
  O   O28       1.0  0.08297  0.97585  0.25313  1.0000
  H   H2        1.0  0.05137  0.02251  0.19067  1.0000
  Cu  Cu1       1.0  0.12528  0.95415  0.29599  1.0000
  C   C31       1.0  0.32377  0.89613  0.56321  1.0000
  C   C32       1.0  0.31319  0.85376  0.57381  1.0000
  C   C33       1.0  0.28038  0.83252  0.55162  1.0000
  C   C34       1.0  0.25807  0.85360  0.51877  1.0000
  C   C35       1.0  0.26865  0.89611  0.50809  1.0000
  C   C36       1.0  0.30150  0.91726  0.53037  1.0000
  O   O29       1.0  0.35597  0.91696  0.58498  1.0000
  O   O30       1.0  0.33503  0.83304  0.60602  1.0000
  H   H3        1.0  0.27260  0.80116  0.55952  1.0000
  O   O31       1.0  0.22585  0.83262  0.49704  1.0000
  O   O32       1.0  0.24687  0.91703  0.47585  1.0000
  H   H4        1.0  0.30933  0.94863  0.52251  1.0000
  Cu  Cu2       1.0  0.20401  0.87472  0.45415  1.0000
  C   C37       1.0  0.39613  0.93679  0.67622  1.0000
  C   C38       1.0  0.35376  0.92619  0.68681  1.0000
  C   C39       1.0  0.33252  0.94838  0.71962  1.0000
  C   C40       1.0  0.35360  0.98124  0.74193  1.0000
  C   C41       1.0  0.39611  0.99191  0.73135  1.0000
  C   C42       1.0  0.41726  0.96963  0.69850  1.0000
  O   O33       1.0  0.41696  0.91501  0.64403  1.0000
  O   O34       1.0  0.33304  0.89398  0.66496  1.0000
  H   H5        1.0  0.30116  0.94048  0.72740  1.0000
  O   O35       1.0  0.33262  0.00296  0.77414  1.0000
  O   O36       1.0  0.41703  0.02415  0.75313  1.0000
  H   H6        1.0  0.44863  0.97749  0.69067  1.0000
  Cu  Cu3       1.0  0.37472  0.04585  0.79599  1.0000
  C   C43       1.0  0.17623  0.10387  0.06321  1.0000
  C   C44       1.0  0.18681  0.14625  0.07381  1.0000
  C   C45       1.0  0.21962  0.16748  0.05162  1.0000
  C   C46       1.0  0.24193  0.14640  0.01876  1.0000
  C   C47       1.0  0.23135  0.10389  0.00809  1.0000
  C   C48       1.0  0.19850  0.08274  0.03037  1.0000
  O   O37       1.0  0.14404  0.08304  0.08499  1.0000
  O   O38       1.0  0.16497  0.16697  0.10602  1.0000
  H   H7        1.0  0.22740  0.19884  0.05952  1.0000
  O   O39       1.0  0.27415  0.16738  0.99704  1.0000
  O   O40       1.0  0.25314  0.08298  0.97585  1.0000
  H   H8        1.0  0.19068  0.05137  0.02251  1.0000
  Cu  Cu4       1.0  0.29599  0.12528  0.95415  1.0000
  C   C49       1.0  0.06321  0.17623  0.10387  1.0000
  C   C50       1.0  0.07382  0.18681  0.14625  1.0000
  C   C51       1.0  0.05162  0.21962  0.16748  1.0000
  C   C52       1.0  0.01877  0.24193  0.14640  1.0000
  C   C53       1.0  0.00810  0.23135  0.10389  1.0000
  C   C54       1.0  0.03037  0.19850  0.08274  1.0000
  O   O41       1.0  0.08499  0.14403  0.08304  1.0000
  O   O42       1.0  0.10602  0.16496  0.16696  1.0000
  H   H9        1.0  0.05953  0.22740  0.19885  1.0000
  O   O43       1.0  0.99705  0.27414  0.16738  1.0000
  O   O44       1.0  0.97585  0.25313  0.08298  1.0000
  H   H10       1.0  0.02251  0.19067  0.05137  1.0000
  Cu  Cu5       1.0  0.95415  0.29599  0.12528  1.0000
  C   C55       1.0  0.57378  0.31321  0.85387  1.0000
  C   C56       1.0  0.56320  0.32382  0.89624  1.0000
  C   C57       1.0  0.53038  0.30162  0.91748  1.0000
  C   C58       1.0  0.50807  0.26877  0.89640  1.0000
  C   C59       1.0  0.51865  0.25810  0.85389  1.0000
  C   C60       1.0  0.55150  0.28037  0.83274  1.0000
  O   O45       1.0  0.60597  0.33499  0.83304  1.0000
  O   O46       1.0  0.58504  0.35602  0.91697  1.0000
  H   H11       1.0  0.52260  0.30952  0.94884  1.0000
  O   O47       1.0  0.47586  0.24705  0.91738  1.0000
  O   O48       1.0  0.49687  0.22586  0.83297  1.0000
  H   H12       1.0  0.55933  0.27251  0.80137  1.0000
  Cu  Cu6       1.0  0.45401  0.20415  0.87528  1.0000
  C   C61       1.0  0.92622  0.68679  0.35387  1.0000
  C   C62       1.0  0.93681  0.67618  0.39625  1.0000
  C   C63       1.0  0.96962  0.69838  0.41748  1.0000
  C   C64       1.0  0.99193  0.73123  0.39640  1.0000
  C   C65       1.0  0.98135  0.74190  0.35389  1.0000
  C   C66       1.0  0.94850  0.71963  0.33274  1.0000
  O   O49       1.0  0.89403  0.66501  0.33304  1.0000
  O   O50       1.0  0.91496  0.64398  0.41697  1.0000
  H   H13       1.0  0.97740  0.69048  0.44885  1.0000
  O   O51       1.0  0.02414  0.75296  0.41738  1.0000
  O   O52       1.0  0.00313  0.77415  0.33297  1.0000
  H   H14       1.0  0.94067  0.72749  0.30137  1.0000
  Cu  Cu7       1.0  0.04599  0.79585  0.37528  1.0000
  C   C67       1.0  0.43679  0.82377  0.60387  1.0000
  C   C68       1.0  0.42618  0.81319  0.64624  1.0000
  C   C69       1.0  0.44838  0.78038  0.66748  1.0000
  C   C70       1.0  0.48123  0.75807  0.64640  1.0000
  C   C71       1.0  0.49190  0.76865  0.60389  1.0000
  C   C72       1.0  0.46963  0.80150  0.58274  1.0000
  O   O53       1.0  0.41501  0.85597  0.58304  1.0000
  O   O54       1.0  0.39398  0.83504  0.66696  1.0000
  H   H15       1.0  0.44047  0.77260  0.69884  1.0000
  O   O55       1.0  0.50295  0.72585  0.66738  1.0000
  O   O56       1.0  0.52414  0.74686  0.58297  1.0000
  H   H16       1.0  0.47749  0.80932  0.55137  1.0000
  Cu  Cu8       1.0  0.54585  0.70401  0.62528  1.0000
  C   C73       1.0  0.64613  0.42623  0.81321  1.0000
  C   C74       1.0  0.60376  0.43681  0.82382  1.0000
  C   C75       1.0  0.58252  0.46962  0.80162  1.0000
  C   C76       1.0  0.60360  0.49193  0.76877  1.0000
  C   C77       1.0  0.64611  0.48135  0.75810  1.0000
  C   C78       1.0  0.66726  0.44850  0.78037  1.0000
  O   O57       1.0  0.66697  0.39403  0.83499  1.0000
  O   O58       1.0  0.58304  0.41496  0.85602  1.0000
  H   H17       1.0  0.55116  0.47740  0.80953  1.0000
  O   O59       1.0  0.58262  0.52414  0.74704  1.0000
  O   O60       1.0  0.66702  0.50313  0.72585  1.0000
  H   H18       1.0  0.69863  0.44067  0.77251  1.0000
  Cu  Cu9       1.0  0.62472  0.54599  0.70415  1.0000
  C   C79       1.0  0.68679  0.35387  0.92623  1.0000
  C   C80       1.0  0.67619  0.39624  0.93681  1.0000
  C   C81       1.0  0.69838  0.41748  0.96962  1.0000
  C   C82       1.0  0.73124  0.39640  0.99193  1.0000
  C   C83       1.0  0.74191  0.35389  0.98135  1.0000
  C   C84       1.0  0.71963  0.33274  0.94850  1.0000
  O   O61       1.0  0.66502  0.33304  0.89403  1.0000
  O   O62       1.0  0.64398  0.41697  0.91497  1.0000
  H   H19       1.0  0.69048  0.44884  0.97740  1.0000
  O   O63       1.0  0.75296  0.41738  0.02415  1.0000
  O   O64       1.0  0.77415  0.33297  0.00314  1.0000
  H   H20       1.0  0.72749  0.30137  0.94067  1.0000
  Cu  Cu10      1.0  0.79585  0.37528  0.04599  1.0000
  C   C85       1.0  0.89706  0.56571  0.32128  1.0000
  C   C86       1.0  0.85282  0.57130  0.31571  1.0000
  C   C87       1.0  0.83064  0.54659  0.28541  1.0000
  C   C88       1.0  0.85266  0.51623  0.26060  1.0000
  C   C89       1.0  0.89704  0.51059  0.26615  1.0000
  C   C90       1.0  0.91913  0.53537  0.29650  1.0000
  O   O65       1.0  0.91882  0.58995  0.35100  1.0000
  O   O66       1.0  0.83118  0.60105  0.34001  1.0000
  H   H21       1.0  0.79789  0.55078  0.28135  1.0000
  O   O67       1.0  0.83075  0.49202  0.23088  1.0000
  O   O68       1.0  0.91888  0.48083  0.24189  1.0000
  H   H22       1.0  0.95188  0.53123  0.30061  1.0000
  Cu  Cu11      1.0  0.87471  0.45411  0.20405  1.0000
  C   C91       1.0  0.81321  0.64613  0.42623  1.0000
  C   C92       1.0  0.82381  0.60375  0.43681  1.0000
  C   C93       1.0  0.80162  0.58252  0.46962  1.0000
  C   C94       1.0  0.76876  0.60360  0.49193  1.0000
  C   C95       1.0  0.75809  0.64611  0.48135  1.0000
  C   C96       1.0  0.78037  0.66726  0.44850  1.0000
  O   O69       1.0  0.83498  0.66696  0.39403  1.0000
  O   O70       1.0  0.85602  0.58303  0.41497  1.0000
  H   H23       1.0  0.80952  0.55116  0.47740  1.0000
  O   O71       1.0  0.74704  0.58262  0.52415  1.0000
  O   O72       1.0  0.72585  0.66702  0.50313  1.0000
  H   H24       1.0  0.77251  0.69863  0.44067  1.0000
  Cu  Cu12      1.0  0.70415  0.62472  0.54599  1.0000
