data_image0
_chemical_formula_structural       FeC6O6FeC6O6FeC6O6FeC6O6
_chemical_formula_sum              "Fe4 C24 O24"
_cell_length_a       10.5838
_cell_length_b       10.5841
_cell_length_c       10.5839
_cell_angle_alpha    90.0001
_cell_angle_beta     89.9996
_cell_angle_gamma    89.9999

_space_group_name_H-M_alt    "P 1"
_space_group_IT_number       1

loop_
  _space_group_symop_operation_xyz
  'x, y, z'

loop_
  _atom_site_type_symbol
  _atom_site_label
  _atom_site_symmetry_multiplicity
  _atom_site_fract_x
  _atom_site_fract_y
  _atom_site_fract_z
  _atom_site_occupancy
  Fe  Fe1       1.0  0.12500  0.12500  0.12500  1.0000
  C   C1        1.0  0.07100  0.92900  0.26700  1.0000
  C   C2        1.0  0.01700  0.82100  0.32100  1.0000
  C   C3        1.0  0.07100  0.76699  0.42900  1.0000
  C   C4        1.0  0.17900  0.82100  0.48300  1.0000
  C   C5        1.0  0.23300  0.92900  0.42900  1.0000
  C   C6        1.0  0.17900  0.98300  0.32100  1.0000
  O   O1        1.0  0.02239  0.97760  0.16980  1.0000
  O   O2        1.0  0.91979  0.77239  0.27240  1.0000
  O   O3        1.0  0.02240  0.66979  0.47760  1.0000
  O   O4        1.0  0.22760  0.77239  0.58020  1.0000
  O   O5        1.0  0.33020  0.97760  0.47760  1.0000
  O   O6        1.0  0.22760  0.08020  0.27240  1.0000
  Fe  Fe2       1.0  0.37500  0.87500  0.62500  1.0000
  C   C7        1.0  0.42900  0.07100  0.76700  1.0000
  C   C8        1.0  0.48300  0.17900  0.82100  1.0000
  C   C9        1.0  0.42900  0.23300  0.92900  1.0000
  C   C10       1.0  0.32100  0.17900  0.98300  1.0000
  C   C11       1.0  0.26700  0.07100  0.92900  1.0000
  C   C12       1.0  0.32100  0.01700  0.82100  1.0000
  O   O7        1.0  0.47760  0.02240  0.66979  1.0000
  O   O8        1.0  0.58021  0.22760  0.77239  1.0000
  O   O9        1.0  0.47760  0.33021  0.97760  1.0000
  O   O10       1.0  0.27240  0.22760  0.08020  1.0000
  O   O11       1.0  0.16980  0.02240  0.97760  1.0000
  O   O12       1.0  0.27240  0.91980  0.77240  1.0000
  Fe  Fe3       1.0  0.62500  0.37500  0.87500  1.0000
  C   C13       1.0  0.82100  0.48300  0.17900  1.0000
  C   C14       1.0  0.76700  0.42900  0.07100  1.0000
  C   C15       1.0  0.82100  0.32100  0.01700  1.0000
  C   C16       1.0  0.92900  0.26700  0.07100  1.0000
  C   C17       1.0  0.98300  0.32100  0.17900  1.0000
  C   C18       1.0  0.92900  0.42900  0.23300  1.0000
  O   O13       1.0  0.77240  0.58020  0.22760  1.0000
  O   O14       1.0  0.66980  0.47760  0.02239  1.0000
  O   O15       1.0  0.77240  0.27240  0.91979  1.0000
  O   O16       1.0  0.97760  0.16980  0.02240  1.0000
  O   O17       1.0  0.08020  0.27240  0.22760  1.0000
  O   O18       1.0  0.97760  0.47760  0.33021  1.0000
  Fe  Fe4       1.0  0.87500  0.62500  0.37500  1.0000
  C   C19       1.0  0.51700  0.67900  0.67900  1.0000
  C   C20       1.0  0.57100  0.57100  0.73300  1.0000
  C   C21       1.0  0.67900  0.51700  0.67900  1.0000
  C   C22       1.0  0.73300  0.57100  0.57100  1.0000
  C   C23       1.0  0.67900  0.67900  0.51700  1.0000
  C   C24       1.0  0.57100  0.73300  0.57100  1.0000
  O   O19       1.0  0.41979  0.72760  0.72761  1.0000
  O   O20       1.0  0.52240  0.52240  0.83021  1.0000
  O   O21       1.0  0.72760  0.41979  0.72760  1.0000
  O   O22       1.0  0.83021  0.52240  0.52240  1.0000
  O   O23       1.0  0.72760  0.72760  0.41980  1.0000
  O   O24       1.0  0.52240  0.83020  0.52240  1.0000
