data_image0
_chemical_formula_structural       C7NCNCNC3NCNC11NCNC7NH8C16HO2H2O2H2O2H2O2HNiC7NCNCNC3NCNC11NCNC7NH8C16HO2H2O2H2O2H2O2HNiC7NCNCNC3NCNC11NCNC7NH8C16HO2H2O2H2O2H2O2HNiC7NCNCNC3NCNC11NCNC7NH8C16HO2H2O2H2O2H2O2HNiC7NCNCNC3NCNC11NCNC7NH8C16HO2H2O2H2O2H2O2HNiC7NCNCNC3NCNC11NCNC7NH8C16HO2H2O2H2O2H2O2HNiC7NCNCNC3NCNC11NCNC7NH8C16HO2H2O2H2O2H2O2HNiC7NCNCNC3NCNC11NCNC7NH8C16HO2H2O2H2O2H2O2HNiCu4Zn8Cu4
_chemical_formula_sum              "C384 N64 H128 O64 Ni8 Cu8 Zn8"
_cell_length_a       75.2135
_cell_length_b       75.2173
_cell_length_c       25.0732
_cell_angle_alpha    90.2445
_cell_angle_beta     90.2444
_cell_angle_gamma    89.9996

_space_group_name_H-M_alt    "P 1"
_space_group_IT_number       1

loop_
  _space_group_symop_operation_xyz
  'x, y, z'

loop_
  _atom_site_type_symbol
  _atom_site_label
  _atom_site_symmetry_multiplicity
  _atom_site_fract_x
  _atom_site_fract_y
  _atom_site_fract_z
  _atom_site_occupancy
  C   C1        1.0  0.18726  0.08905  0.00218  1.0000
  C   C2        1.0  0.17681  0.07132  0.00216  1.0000
  C   C3        1.0  0.15619  0.07131  0.00214  1.0000
  C   C4        1.0  0.14585  0.08902  0.00215  1.0000
  C   C5        1.0  0.15666  0.10626  0.00217  1.0000
  C   C6        1.0  0.17654  0.10627  0.00218  1.0000
  C   C7        1.0  0.18283  0.12565  0.00220  1.0000
  N   N1        1.0  0.16665  0.13783  0.00220  1.0000
  C   C8        1.0  0.15043  0.12562  0.00218  1.0000
  N   N2        1.0  0.13119  0.13127  0.00217  1.0000
  C   C9        1.0  0.12556  0.15049  0.00218  1.0000
  N   N3        1.0  0.13777  0.16670  0.00220  1.0000
  C   C10       1.0  0.12562  0.18287  0.00220  1.0000
  C   C11       1.0  0.10625  0.17657  0.00218  1.0000
  C   C12       1.0  0.10620  0.15671  0.00217  1.0000
  N   N4        1.0  0.16665  0.19558  0.00224  1.0000
  C   C13       1.0  0.15049  0.20773  0.00224  1.0000
  N   N5        1.0  0.13129  0.20207  0.00222  1.0000
  C   C14       1.0  0.15678  0.22711  0.00225  1.0000
  C   C15       1.0  0.17664  0.22714  0.00227  1.0000
  C   C16       1.0  0.18286  0.20779  0.00226  1.0000
  C   C17       1.0  0.08895  0.14591  0.00215  1.0000
  C   C18       1.0  0.07126  0.15622  0.00214  1.0000
  C   C19       1.0  0.07130  0.17681  0.00216  1.0000
  C   C20       1.0  0.08903  0.18727  0.00218  1.0000
  C   C21       1.0  0.18745  0.24439  0.00229  1.0000
  C   C22       1.0  0.17713  0.26210  0.00229  1.0000
  C   C23       1.0  0.15654  0.26205  0.00228  1.0000
  C   C24       1.0  0.14609  0.24432  0.00226  1.0000
  N   N6        1.0  0.19553  0.16671  0.00224  1.0000
  C   C25       1.0  0.20773  0.18291  0.00226  1.0000
  N   N7        1.0  0.20208  0.20215  0.00227  1.0000
  C   C26       1.0  0.22710  0.17670  0.00227  1.0000
  C   C27       1.0  0.22707  0.15682  0.00225  1.0000
  C   C28       1.0  0.20770  0.15053  0.00224  1.0000
  C   C29       1.0  0.24430  0.14612  0.00226  1.0000
  C   C30       1.0  0.26204  0.15656  0.00228  1.0000
  C   C31       1.0  0.26206  0.17717  0.00229  1.0000
  C   C32       1.0  0.24434  0.18751  0.00229  1.0000
  N   N8        1.0  0.20204  0.13129  0.00222  1.0000
  H   H1        1.0  0.20235  0.08928  0.00219  1.0000
  H   H2        1.0  0.13074  0.08922  0.00213  1.0000
  H   H3        1.0  0.08914  0.13082  0.00213  1.0000
  H   H4        1.0  0.08927  0.20235  0.00219  1.0000
  H   H5        1.0  0.20253  0.24421  0.00230  1.0000
  H   H6        1.0  0.13100  0.24407  0.00225  1.0000
  H   H7        1.0  0.24407  0.13102  0.00225  1.0000
  H   H8        1.0  0.24414  0.20261  0.00230  1.0000
  C   C33       1.0  0.27976  0.14649  0.00228  1.0000
  C   C34       1.0  0.29745  0.15680  0.00230  1.0000
  C   C35       1.0  0.29747  0.17718  0.00232  1.0000
  C   C36       1.0  0.27980  0.18736  0.00231  1.0000
  C   C37       1.0  0.18688  0.05358  0.00215  1.0000
  C   C38       1.0  0.17658  0.03588  0.00213  1.0000
  C   C39       1.0  0.15620  0.03586  0.00211  1.0000
  C   C40       1.0  0.14601  0.05354  0.00212  1.0000
  C   C41       1.0  0.05350  0.14603  0.00212  1.0000
  C   C42       1.0  0.03584  0.15621  0.00211  1.0000
  C   C43       1.0  0.03589  0.17659  0.00213  1.0000
  C   C44       1.0  0.05359  0.18688  0.00215  1.0000
  C   C45       1.0  0.18732  0.27985  0.00231  1.0000
  C   C46       1.0  0.17716  0.29750  0.00232  1.0000
  C   C47       1.0  0.15680  0.29746  0.00230  1.0000
  C   C48       1.0  0.14650  0.27976  0.00228  1.0000
  H   H9        1.0  0.27977  0.13140  0.00227  1.0000
  O   O1        1.0  0.31470  0.14695  0.00231  1.0000
  O   O2        1.0  0.31474  0.18716  0.00234  1.0000
  H   H10       1.0  0.27986  0.20247  0.00233  1.0000
  H   H11       1.0  0.20197  0.05356  0.00216  1.0000
  O   O3        1.0  0.18643  0.01863  0.00212  1.0000
  O   O4        1.0  0.14622  0.01859  0.00209  1.0000
  H   H12       1.0  0.13092  0.05348  0.00211  1.0000
  H   H13       1.0  0.05342  0.13095  0.00211  1.0000
  O   O5        1.0  0.01856  0.14625  0.00209  1.0000
  O   O6        1.0  0.01866  0.18641  0.00212  1.0000
  H   H14       1.0  0.05358  0.20196  0.00216  1.0000
  H   H15       1.0  0.20239  0.27992  0.00233  1.0000
  O   O7        1.0  0.18711  0.31477  0.00234  1.0000
  O   O8        1.0  0.14696  0.31469  0.00231  1.0000
  H   H16       1.0  0.13141  0.27978  0.00227  1.0000
  Ni  Ni1       1.0  0.16665  0.16670  0.00222  1.0000
  C   C49       1.0  0.81274  0.08905  0.00102  1.0000
  C   C50       1.0  0.82319  0.07132  0.00102  1.0000
  C   C51       1.0  0.84381  0.07130  0.00104  1.0000
  C   C52       1.0  0.85416  0.08902  0.00106  1.0000
  C   C53       1.0  0.84334  0.10626  0.00107  1.0000
  C   C54       1.0  0.82346  0.10627  0.00105  1.0000
  C   C55       1.0  0.81717  0.12564  0.00106  1.0000
  N   N9        1.0  0.83336  0.13783  0.00109  1.0000
  C   C56       1.0  0.84957  0.12562  0.00109  1.0000
  N   N10       1.0  0.86881  0.13127  0.00111  1.0000
  C   C57       1.0  0.87444  0.15048  0.00113  1.0000
  N   N11       1.0  0.86223  0.16669  0.00114  1.0000
  C   C58       1.0  0.87439  0.18286  0.00116  1.0000
  C   C59       1.0  0.89376  0.17657  0.00118  1.0000
  C   C60       1.0  0.89381  0.15671  0.00116  1.0000
  N   N12       1.0  0.83335  0.19558  0.00114  1.0000
  C   C61       1.0  0.84951  0.20773  0.00116  1.0000
  N   N13       1.0  0.86872  0.20207  0.00117  1.0000
  C   C62       1.0  0.84322  0.22711  0.00117  1.0000
  C   C63       1.0  0.82336  0.22714  0.00115  1.0000
  C   C64       1.0  0.81714  0.20778  0.00113  1.0000
  C   C65       1.0  0.91105  0.14591  0.00116  1.0000
  C   C66       1.0  0.92874  0.15622  0.00119  1.0000
  C   C67       1.0  0.92871  0.17681  0.00121  1.0000
  C   C68       1.0  0.91097  0.18726  0.00120  1.0000
  C   C69       1.0  0.81255  0.24439  0.00116  1.0000
  C   C70       1.0  0.82287  0.26209  0.00119  1.0000
  C   C71       1.0  0.84347  0.26205  0.00120  1.0000
  C   C72       1.0  0.85391  0.24432  0.00120  1.0000
  N   N14       1.0  0.80447  0.16670  0.00108  1.0000
  C   C73       1.0  0.79228  0.18291  0.00109  1.0000
  N   N15       1.0  0.79793  0.20214  0.00111  1.0000
  C   C74       1.0  0.77290  0.17669  0.00106  1.0000
  C   C75       1.0  0.77293  0.15682  0.00105  1.0000
  C   C76       1.0  0.79230  0.15053  0.00106  1.0000
  C   C77       1.0  0.75571  0.14612  0.00102  1.0000
  C   C78       1.0  0.73796  0.15656  0.00101  1.0000
  C   C79       1.0  0.73795  0.17717  0.00103  1.0000
  C   C80       1.0  0.75567  0.18750  0.00106  1.0000
  N   N16       1.0  0.79796  0.13129  0.00105  1.0000
  H   H17       1.0  0.79765  0.08927  0.00101  1.0000
  H   H18       1.0  0.86926  0.08922  0.00108  1.0000
  H   H19       1.0  0.91086  0.13082  0.00115  1.0000
  H   H20       1.0  0.91074  0.20235  0.00121  1.0000
  H   H21       1.0  0.79747  0.24421  0.00115  1.0000
  H   H22       1.0  0.86900  0.24407  0.00121  1.0000
  H   H23       1.0  0.75593  0.13102  0.00101  1.0000
  H   H24       1.0  0.75587  0.20261  0.00107  1.0000
  C   C81       1.0  0.72025  0.14649  0.00010  1.0000
  C   C82       1.0  0.70255  0.15680  0.00010  1.0000
  C   C83       1.0  0.70253  0.17718  0.00010  1.0000
  C   C84       1.0  0.72021  0.18736  0.00102  1.0000
  C   C85       1.0  0.81312  0.05358  0.00010  1.0000
  C   C86       1.0  0.82342  0.03588  0.00010  1.0000
  C   C87       1.0  0.84381  0.03586  0.00101  1.0000
  C   C88       1.0  0.85399  0.05354  0.00103  1.0000
  C   C89       1.0  0.94650  0.14603  0.00120  1.0000
  C   C90       1.0  0.96416  0.15621  0.00122  1.0000
  C   C91       1.0  0.96411  0.17658  0.00124  1.0000
  C   C92       1.0  0.94641  0.18687  0.00123  1.0000
  C   C93       1.0  0.81268  0.27985  0.00119  1.0000
  C   C94       1.0  0.82284  0.29749  0.00122  1.0000
  C   C95       1.0  0.84320  0.29746  0.00124  1.0000
  C   C96       1.0  0.85350  0.27976  0.00123  1.0000
  H   H25       1.0  0.72023  0.13140  0.00010  1.0000
  O   O9        1.0  0.68531  0.14694  0.00010  1.0000
  O   O10       1.0  0.68526  0.18715  0.00010  1.0000
  H   H26       1.0  0.72014  0.20247  0.00104  1.0000
  H   H27       1.0  0.79803  0.05356  0.00010  1.0000
  O   O11       1.0  0.81357  0.01863  0.00010  1.0000
  O   O12       1.0  0.85379  0.01859  0.00010  1.0000
  H   H28       1.0  0.86909  0.05348  0.00104  1.0000
  H   H29       1.0  0.94658  0.13095  0.00118  1.0000
  O   O13       1.0  0.98144  0.14624  0.00123  1.0000
  O   O14       1.0  0.98134  0.18641  0.00127  1.0000
  H   H30       1.0  0.94642  0.20196  0.00125  1.0000
  H   H31       1.0  0.79761  0.27992  0.00118  1.0000
  O   O15       1.0  0.81289  0.31477  0.00122  1.0000
  O   O16       1.0  0.85304  0.31468  0.00126  1.0000
  H   H32       1.0  0.86859  0.27977  0.00124  1.0000
  Ni  Ni2       1.0  0.83335  0.16670  0.00111  1.0000
  C   C97       1.0  0.81273  0.91095  0.00010  1.0000
  C   C98       1.0  0.82318  0.92868  0.00010  1.0000
  C   C99       1.0  0.84380  0.92869  0.00010  1.0000
  C   C100      1.0  0.85415  0.91098  0.00010  1.0000
  C   C101      1.0  0.84333  0.89374  0.00010  1.0000
  C   C102      1.0  0.82345  0.89373  0.00010  1.0000
  C   C103      1.0  0.81717  0.87435  0.00010  1.0000
  N   N17       1.0  0.83335  0.86217  0.00010  1.0000
  C   C104      1.0  0.84956  0.87438  0.00010  1.0000
  N   N18       1.0  0.86880  0.86873  0.00010  1.0000
  C   C105      1.0  0.87443  0.84951  0.00010  1.0000
  N   N19       1.0  0.86222  0.83330  0.00010  1.0000
  C   C106      1.0  0.87438  0.81713  0.00010  1.0000
  C   C107      1.0  0.89375  0.82343  0.00010  1.0000
  C   C108      1.0  0.89380  0.84328  0.00010  1.0000
  N   N20       1.0  0.83335  0.80442  0.00010  1.0000
  C   C109      1.0  0.84950  0.79227  0.00010  1.0000
  N   N21       1.0  0.86871  0.79793  0.00010  1.0000
  C   C110      1.0  0.84321  0.77289  0.00010  1.0000
  C   C111      1.0  0.82335  0.77286  0.00010  1.0000
  C   C112      1.0  0.81713  0.79221  0.00010  1.0000
  C   C113      1.0  0.91104  0.85409  0.00010  1.0000
  C   C114      1.0  0.92874  0.84378  0.00010  1.0000
  C   C115      1.0  0.92870  0.82319  0.00010  1.0000
  C   C116      1.0  0.91096  0.81273  0.00010  1.0000
  C   C117      1.0  0.81254  0.75561  0.00010  1.0000
  C   C118      1.0  0.82286  0.73790  0.00010  1.0000
  C   C119      1.0  0.84346  0.73795  0.00010  1.0000
  C   C120      1.0  0.85391  0.75568  0.00010  1.0000
  N   N22       1.0  0.80446  0.83329  0.00010  1.0000
  C   C121      1.0  0.79227  0.81709  0.00010  1.0000
  N   N23       1.0  0.79792  0.79785  0.00010  1.0000
  C   C122      1.0  0.77289  0.82330  0.00010  1.0000
  C   C123      1.0  0.77292  0.84318  0.00010  1.0000
  C   C124      1.0  0.79229  0.84947  0.00010  1.0000
  C   C125      1.0  0.75570  0.85388  0.00010  1.0000
  C   C126      1.0  0.73795  0.84344  0.00010  1.0000
  C   C127      1.0  0.73794  0.82283  0.00010  1.0000
  C   C128      1.0  0.75566  0.81249  0.00010  1.0000
  N   N24       1.0  0.79795  0.86871  0.00010  1.0000
  H   H33       1.0  0.79764  0.91072  0.00010  1.0000
  H   H34       1.0  0.86925  0.91078  0.00010  1.0000
  H   H35       1.0  0.91086  0.86918  0.00010  1.0000
  H   H36       1.0  0.91073  0.79765  0.00010  1.0000
  H   H37       1.0  0.79746  0.75579  0.00010  1.0000
  H   H38       1.0  0.86899  0.75593  0.00010  1.0000
  H   H39       1.0  0.75592  0.86898  0.00010  1.0000
  H   H40       1.0  0.75586  0.79739  0.00010  1.0000
  C   C129      1.0  0.72024  0.85351  0.00010  1.0000
  C   C130      1.0  0.70254  0.84320  0.00010  1.0000
  C   C131      1.0  0.70252  0.82282  0.99990  1.0000
  C   C132      1.0  0.72020  0.81264  0.99990  1.0000
  C   C133      1.0  0.81312  0.94642  0.00010  1.0000
  C   C134      1.0  0.82342  0.96412  0.00010  1.0000
  C   C135      1.0  0.84380  0.96414  0.00010  1.0000
  C   C136      1.0  0.85398  0.94646  0.00010  1.0000
  C   C137      1.0  0.94649  0.85397  0.00010  1.0000
  C   C138      1.0  0.96415  0.84379  0.00010  1.0000
  C   C139      1.0  0.96410  0.82341  0.00010  1.0000
  C   C140      1.0  0.94640  0.81312  0.00010  1.0000
  C   C141      1.0  0.81267  0.72015  0.99990  1.0000
  C   C142      1.0  0.82283  0.70250  0.99990  1.0000
  C   C143      1.0  0.84319  0.70254  0.00010  1.0000
  C   C144      1.0  0.85349  0.72024  0.00010  1.0000
  H   H41       1.0  0.72022  0.86860  0.00010  1.0000
  O   O17       1.0  0.68530  0.85305  0.99990  1.0000
  O   O18       1.0  0.68525  0.81284  0.99990  1.0000
  H   H42       1.0  0.72013  0.79753  0.99990  1.0000
  H   H43       1.0  0.79802  0.94644  0.00010  1.0000
  O   O19       1.0  0.81357  0.98137  0.00010  1.0000
  O   O20       1.0  0.85378  0.98141  0.00010  1.0000
  H   H44       1.0  0.86908  0.94652  0.00010  1.0000
  H   H45       1.0  0.94657  0.86905  0.00010  1.0000
  O   O21       1.0  0.98143  0.85375  0.00010  1.0000
  O   O22       1.0  0.98133  0.81359  0.00010  1.0000
  H   H46       1.0  0.94641  0.79804  0.00010  1.0000
  H   H47       1.0  0.79761  0.72008  0.99990  1.0000
  O   O23       1.0  0.81288  0.68522  0.99990  1.0000
  O   O24       1.0  0.85303  0.68531  0.99990  1.0000
  H   H48       1.0  0.86858  0.72022  0.00010  1.0000
  Ni  Ni3       1.0  0.83334  0.83330  0.00010  1.0000
  C   C145      1.0  0.18726  0.91095  0.00120  1.0000
  C   C146      1.0  0.17681  0.92869  0.00121  1.0000
  C   C147      1.0  0.15620  0.92870  0.00119  1.0000
  C   C148      1.0  0.14585  0.91098  0.00117  1.0000
  C   C149      1.0  0.15667  0.89375  0.00116  1.0000
  C   C150      1.0  0.17655  0.89373  0.00118  1.0000
  C   C151      1.0  0.18283  0.87436  0.00116  1.0000
  N   N25       1.0  0.16665  0.86217  0.00114  1.0000
  C   C152      1.0  0.15044  0.87438  0.00113  1.0000
  N   N26       1.0  0.13119  0.86873  0.00111  1.0000
  C   C153      1.0  0.12556  0.84952  0.00109  1.0000
  N   N27       1.0  0.13777  0.83331  0.00109  1.0000
  C   C154      1.0  0.12562  0.81714  0.00106  1.0000
  C   C155      1.0  0.10625  0.82343  0.00105  1.0000
  C   C156      1.0  0.10620  0.84329  0.00107  1.0000
  N   N28       1.0  0.16665  0.80442  0.00108  1.0000
  C   C157      1.0  0.15049  0.79227  0.00106  1.0000
  N   N29       1.0  0.13129  0.79793  0.00105  1.0000
  C   C158      1.0  0.15679  0.77289  0.00105  1.0000
  C   C159      1.0  0.17665  0.77286  0.00106  1.0000
  C   C160      1.0  0.18286  0.79222  0.00109  1.0000
  C   C161      1.0  0.08895  0.85409  0.00106  1.0000
  C   C162      1.0  0.07126  0.84378  0.00104  1.0000
  C   C163      1.0  0.07130  0.82319  0.00102  1.0000
  C   C164      1.0  0.08903  0.81274  0.00102  1.0000
  C   C165      1.0  0.18745  0.75561  0.00106  1.0000
  C   C166      1.0  0.17713  0.73791  0.00103  1.0000
  C   C167      1.0  0.15654  0.73795  0.00101  1.0000
  C   C168      1.0  0.14609  0.75569  0.00102  1.0000
  N   N30       1.0  0.19554  0.83330  0.00114  1.0000
  C   C169      1.0  0.20773  0.81709  0.00113  1.0000
  N   N31       1.0  0.20208  0.79786  0.00111  1.0000
  C   C170      1.0  0.22710  0.82331  0.00115  1.0000
  C   C171      1.0  0.22707  0.84318  0.00117  1.0000
  C   C172      1.0  0.20770  0.84948  0.00116  1.0000
  C   C173      1.0  0.24430  0.85389  0.00120  1.0000
  C   C174      1.0  0.26204  0.84344  0.00120  1.0000
  C   C175      1.0  0.26206  0.82283  0.00119  1.0000
  C   C176      1.0  0.24434  0.81250  0.00116  1.0000
  N   N32       1.0  0.20205  0.86871  0.00118  1.0000
  H   H49       1.0  0.20235  0.91073  0.00121  1.0000
  H   H50       1.0  0.13075  0.91079  0.00115  1.0000
  H   H51       1.0  0.08914  0.86918  0.00108  1.0000
  H   H52       1.0  0.08927  0.79765  0.00101  1.0000
  H   H53       1.0  0.20254  0.75579  0.00107  1.0000
  H   H54       1.0  0.13100  0.75593  0.00101  1.0000
  H   H55       1.0  0.24407  0.86898  0.00121  1.0000
  H   H56       1.0  0.24414  0.79740  0.00115  1.0000
  C   C177      1.0  0.27976  0.85351  0.00123  1.0000
  C   C178      1.0  0.29746  0.84320  0.00124  1.0000
  C   C179      1.0  0.29748  0.82282  0.00122  1.0000
  C   C180      1.0  0.27980  0.81264  0.00119  1.0000
  C   C181      1.0  0.18688  0.94643  0.00123  1.0000
  C   C182      1.0  0.17658  0.96412  0.00124  1.0000
  C   C183      1.0  0.15620  0.96414  0.00122  1.0000
  C   C184      1.0  0.14602  0.94646  0.00120  1.0000
  C   C185      1.0  0.05350  0.85397  0.00103  1.0000
  C   C186      1.0  0.03584  0.84379  0.00101  1.0000
  C   C187      1.0  0.03589  0.82342  0.00010  1.0000
  C   C188      1.0  0.05360  0.81313  0.00010  1.0000
  C   C189      1.0  0.18733  0.72015  0.00102  1.0000
  C   C190      1.0  0.17716  0.70251  0.00010  1.0000
  C   C191      1.0  0.15680  0.70254  0.00010  1.0000
  C   C192      1.0  0.14650  0.72024  0.00010  1.0000
  H   H57       1.0  0.27978  0.86860  0.00124  1.0000
  O   O25       1.0  0.31470  0.85306  0.00126  1.0000
  O   O26       1.0  0.31475  0.81285  0.00122  1.0000
  H   H58       1.0  0.27987  0.79753  0.00118  1.0000
  H   H59       1.0  0.20198  0.94644  0.00125  1.0000
  O   O27       1.0  0.18643  0.98137  0.00127  1.0000
  O   O28       1.0  0.14622  0.98141  0.00123  1.0000
  H   H60       1.0  0.13092  0.94652  0.00119  1.0000
  H   H61       1.0  0.05343  0.86905  0.00104  1.0000
  O   O29       1.0  0.01857  0.85376  0.00010  1.0000
  O   O30       1.0  0.01867  0.81359  0.00010  1.0000
  H   H62       1.0  0.05359  0.79804  0.00010  1.0000
  H   H63       1.0  0.20239  0.72008  0.00104  1.0000
  O   O31       1.0  0.18712  0.68523  0.00010  1.0000
  O   O32       1.0  0.14697  0.68532  0.00010  1.0000
  H   H64       1.0  0.13142  0.72023  0.00010  1.0000
  Ni  Ni4       1.0  0.16665  0.83330  0.00111  1.0000
  C   C193      1.0  0.16777  0.47922  0.76858  1.0000
  C   C194      1.0  0.16777  0.48962  0.71545  1.0000
  C   C195      1.0  0.16777  0.51024  0.71553  1.0000
  C   C196      1.0  0.16777  0.52063  0.76872  1.0000
  C   C197      1.0  0.16777  0.50986  0.82038  1.0000
  C   C198      1.0  0.16777  0.48998  0.82031  1.0000
  C   C199      1.0  0.16777  0.48374  0.87839  1.0000
  N   N33       1.0  0.16777  0.49995  0.91503  1.0000
  C   C200      1.0  0.16777  0.51613  0.87851  1.0000
  N   N34       1.0  0.16777  0.53539  0.89555  1.0000
  C   C201      1.0  0.16777  0.54106  0.95323  1.0000
  N   N35       1.0  0.16777  0.52889  0.00179  1.0000
  C   C202      1.0  0.16777  0.54109  0.05037  1.0000
  C   C203      1.0  0.16777  0.56044  0.03159  1.0000
  C   C204      1.0  0.16777  0.56044  0.97202  1.0000
  N   N36       1.0  0.16777  0.50009  0.08828  1.0000
  C   C205      1.0  0.16777  0.51627  0.12482  1.0000
  N   N37       1.0  0.16777  0.53546  0.10796  1.0000
  C   C206      1.0  0.16777  0.51003  0.18292  1.0000
  C   C207      1.0  0.16777  0.49017  0.18291  1.0000
  C   C208      1.0  0.16777  0.48390  0.12481  1.0000
  C   C209      1.0  0.16777  0.57766  0.93971  1.0000
  C   C210      1.0  0.16777  0.59538  0.97074  1.0000
  C   C211      1.0  0.16777  0.59539  0.03251  1.0000
  C   C212      1.0  0.16777  0.57768  0.06377  1.0000
  C   C213      1.0  0.16777  0.47940  0.23459  1.0000
  C   C214      1.0  0.16777  0.48977  0.28777  1.0000
  C   C215      1.0  0.16777  0.51036  0.28774  1.0000
  C   C216      1.0  0.16777  0.52076  0.23460  1.0000
  N   N38       1.0  0.16777  0.47113  0.00150  1.0000
  C   C217      1.0  0.16777  0.45898  0.05006  1.0000
  N   N39       1.0  0.16777  0.46468  0.10778  1.0000
  C   C218      1.0  0.16776  0.43959  0.03129  1.0000
  C   C219      1.0  0.16776  0.43958  0.97167  1.0000
  C   C220      1.0  0.16777  0.45893  0.95290  1.0000
  C   C221      1.0  0.16776  0.42232  0.93947  1.0000
  C   C222      1.0  0.16776  0.40461  0.97070  1.0000
  C   C223      1.0  0.16776  0.40464  0.03253  1.0000
  C   C224      1.0  0.16776  0.42238  0.06363  1.0000
  N   N40       1.0  0.16777  0.46454  0.89522  1.0000
  H   H65       1.0  0.16777  0.46413  0.76918  1.0000
  H   H66       1.0  0.16777  0.53573  0.76940  1.0000
  H   H67       1.0  0.16777  0.57744  0.89443  1.0000
  H   H68       1.0  0.16777  0.57748  0.10903  1.0000
  H   H69       1.0  0.16777  0.46432  0.23396  1.0000
  H   H70       1.0  0.16777  0.53585  0.23396  1.0000
  H   H71       1.0  0.16776  0.42251  0.89418  1.0000
  H   H72       1.0  0.16776  0.42262  0.10893  1.0000
  C   C225      1.0  0.16776  0.38687  0.94039  1.0000
  C   C226      1.0  0.16776  0.36919  0.97121  1.0000
  C   C227      1.0  0.16776  0.36922  0.03236  1.0000
  C   C228      1.0  0.16776  0.38692  0.06299  1.0000
  C   C229      1.0  0.16777  0.47952  0.66217  1.0000
  C   C230      1.0  0.16777  0.48977  0.60914  1.0000
  C   C231      1.0  0.16777  0.51015  0.60920  1.0000
  C   C232      1.0  0.16777  0.52038  0.66230  1.0000
  C   C233      1.0  0.16777  0.61311  0.94027  1.0000
  C   C234      1.0  0.16777  0.63079  0.97090  1.0000
  C   C235      1.0  0.16777  0.63079  0.03203  1.0000
  C   C236      1.0  0.16777  0.61312  0.06280  1.0000
  C   C237      1.0  0.16777  0.47962  0.34097  1.0000
  C   C238      1.0  0.16777  0.48982  0.39397  1.0000
  C   C239      1.0  0.16777  0.51018  0.39398  1.0000
  C   C240      1.0  0.16777  0.52044  0.34094  1.0000
  H   H73       1.0  0.16776  0.38681  0.89512  1.0000
  O   O33       1.0  0.16776  0.35193  0.94156  1.0000
  O   O34       1.0  0.16776  0.35198  0.06218  1.0000
  H   H74       1.0  0.16776  0.38690  0.10832  1.0000
  H   H75       1.0  0.16777  0.46442  0.66203  1.0000
  O   O35       1.0  0.16777  0.47988  0.55733  1.0000
  O   O36       1.0  0.16777  0.52009  0.55744  1.0000
  H   H76       1.0  0.16777  0.53547  0.66219  1.0000
  H   H77       1.0  0.16777  0.61315  0.89502  1.0000
  O   O37       1.0  0.16777  0.64805  0.94111  1.0000
  O   O38       1.0  0.16777  0.64804  0.06160  1.0000
  H   H78       1.0  0.16777  0.61316  0.10804  1.0000
  H   H79       1.0  0.16777  0.46455  0.34110  1.0000
  O   O39       1.0  0.16777  0.47991  0.44574  1.0000
  O   O40       1.0  0.16777  0.52006  0.44570  1.0000
  H   H80       1.0  0.16777  0.53552  0.34106  1.0000
  Ni  Ni5       1.0  0.16777  0.50002  0.00165  1.0000
  C   C241      1.0  0.47922  0.16777  0.76858  1.0000
  C   C242      1.0  0.48962  0.16777  0.71545  1.0000
  C   C243      1.0  0.51024  0.16777  0.71553  1.0000
  C   C244      1.0  0.52063  0.16777  0.76872  1.0000
  C   C245      1.0  0.50986  0.16777  0.82038  1.0000
  C   C246      1.0  0.48998  0.16777  0.82031  1.0000
  C   C247      1.0  0.48374  0.16777  0.87839  1.0000
  N   N41       1.0  0.49995  0.16777  0.91503  1.0000
  C   C248      1.0  0.51613  0.16777  0.87851  1.0000
  N   N42       1.0  0.53539  0.16777  0.89555  1.0000
  C   C249      1.0  0.54107  0.16777  0.95323  1.0000
  N   N43       1.0  0.52889  0.16777  0.00179  1.0000
  C   C250      1.0  0.54109  0.16777  0.05037  1.0000
  C   C251      1.0  0.56044  0.16777  0.03159  1.0000
  C   C252      1.0  0.56045  0.16777  0.97202  1.0000
  N   N44       1.0  0.50009  0.16777  0.08828  1.0000
  C   C253      1.0  0.51627  0.16777  0.12482  1.0000
  N   N45       1.0  0.53547  0.16777  0.10796  1.0000
  C   C254      1.0  0.51003  0.16777  0.18292  1.0000
  C   C255      1.0  0.49017  0.16777  0.18291  1.0000
  C   C256      1.0  0.48390  0.16777  0.12481  1.0000
  C   C257      1.0  0.57767  0.16777  0.93971  1.0000
  C   C258      1.0  0.59538  0.16777  0.97074  1.0000
  C   C259      1.0  0.59539  0.16777  0.03251  1.0000
  C   C260      1.0  0.57769  0.16777  0.06377  1.0000
  C   C261      1.0  0.47940  0.16777  0.23459  1.0000
  C   C262      1.0  0.48977  0.16777  0.28777  1.0000
  C   C263      1.0  0.51036  0.16777  0.28774  1.0000
  C   C264      1.0  0.52077  0.16777  0.23460  1.0000
  N   N46       1.0  0.47113  0.16777  0.00150  1.0000
  C   C265      1.0  0.45898  0.16777  0.05006  1.0000
  N   N47       1.0  0.46467  0.16777  0.10778  1.0000
  C   C266      1.0  0.43959  0.16777  0.03129  1.0000
  C   C267      1.0  0.43957  0.16777  0.97167  1.0000
  C   C268      1.0  0.45893  0.16777  0.95290  1.0000
  C   C269      1.0  0.42232  0.16777  0.93947  1.0000
  C   C270      1.0  0.40460  0.16777  0.97070  1.0000
  C   C271      1.0  0.40463  0.16777  0.03253  1.0000
  C   C272      1.0  0.42238  0.16777  0.06363  1.0000
  N   N48       1.0  0.46454  0.16777  0.89523  1.0000
  H   H81       1.0  0.46413  0.16777  0.76918  1.0000
  H   H82       1.0  0.53574  0.16777  0.76940  1.0000
  H   H83       1.0  0.57744  0.16777  0.89443  1.0000
  H   H84       1.0  0.57749  0.16777  0.10903  1.0000
  H   H85       1.0  0.46432  0.16777  0.23396  1.0000
  H   H86       1.0  0.53585  0.16777  0.23396  1.0000
  H   H87       1.0  0.42251  0.16777  0.89418  1.0000
  H   H88       1.0  0.42261  0.16777  0.10893  1.0000
  C   C273      1.0  0.38686  0.16777  0.94039  1.0000
  C   C274      1.0  0.36919  0.16777  0.97121  1.0000
  C   C275      1.0  0.36922  0.16777  0.03236  1.0000
  C   C276      1.0  0.38692  0.16777  0.06299  1.0000
  C   C277      1.0  0.47951  0.16777  0.66217  1.0000
  C   C278      1.0  0.48977  0.16777  0.60914  1.0000
  C   C279      1.0  0.51015  0.16777  0.60920  1.0000
  C   C280      1.0  0.52038  0.16777  0.66230  1.0000
  C   C281      1.0  0.61311  0.16777  0.94027  1.0000
  C   C282      1.0  0.63080  0.16777  0.97090  1.0000
  C   C283      1.0  0.63080  0.16777  0.03203  1.0000
  C   C284      1.0  0.61312  0.16777  0.06280  1.0000
  C   C285      1.0  0.47962  0.16777  0.34097  1.0000
  C   C286      1.0  0.48982  0.16777  0.39397  1.0000
  C   C287      1.0  0.51018  0.16777  0.39398  1.0000
  C   C288      1.0  0.52044  0.16777  0.34094  1.0000
  H   H89       1.0  0.38681  0.16777  0.89512  1.0000
  O   O41       1.0  0.35192  0.16777  0.94156  1.0000
  O   O42       1.0  0.35197  0.16777  0.06219  1.0000
  H   H90       1.0  0.38689  0.16777  0.10832  1.0000
  H   H91       1.0  0.46442  0.16777  0.66203  1.0000
  O   O43       1.0  0.47988  0.16777  0.55733  1.0000
  O   O44       1.0  0.52009  0.16777  0.55744  1.0000
  H   H92       1.0  0.53548  0.16777  0.66219  1.0000
  H   H93       1.0  0.61316  0.16777  0.89502  1.0000
  O   O45       1.0  0.64805  0.16777  0.94111  1.0000
  O   O46       1.0  0.64805  0.16777  0.06160  1.0000
  H   H94       1.0  0.61317  0.16777  0.10804  1.0000
  H   H95       1.0  0.46455  0.16777  0.34110  1.0000
  O   O47       1.0  0.47991  0.16777  0.44574  1.0000
  O   O48       1.0  0.52006  0.16777  0.44570  1.0000
  H   H96       1.0  0.53552  0.16777  0.34106  1.0000
  Ni  Ni6       1.0  0.50002  0.16777  0.00165  1.0000
  C   C289      1.0  0.83223  0.52078  0.23360  1.0000
  C   C290      1.0  0.83223  0.51037  0.28674  1.0000
  C   C291      1.0  0.83223  0.48976  0.28665  1.0000
  C   C292      1.0  0.83224  0.47937  0.23346  1.0000
  C   C293      1.0  0.83223  0.49014  0.18181  1.0000
  C   C294      1.0  0.83223  0.51002  0.18187  1.0000
  C   C295      1.0  0.83223  0.51626  0.12379  1.0000
  N   N49       1.0  0.83223  0.50005  0.08715  1.0000
  C   C296      1.0  0.83223  0.48387  0.12367  1.0000
  N   N50       1.0  0.83224  0.46461  0.10663  1.0000
  C   C297      1.0  0.83224  0.45894  0.04895  1.0000
  N   N51       1.0  0.83224  0.47111  0.00010  1.0000
  C   C298      1.0  0.83224  0.45891  0.95182  1.0000
  C   C299      1.0  0.83224  0.43956  0.97059  1.0000
  C   C300      1.0  0.83224  0.43956  0.03016  1.0000
  N   N52       1.0  0.83223  0.49991  0.91390  1.0000
  C   C301      1.0  0.83223  0.48373  0.87737  1.0000
  N   N53       1.0  0.83224  0.46454  0.89422  1.0000
  C   C302      1.0  0.83223  0.48997  0.81926  1.0000
  C   C303      1.0  0.83223  0.50983  0.81927  1.0000
  C   C304      1.0  0.83223  0.51610  0.87737  1.0000
  C   C305      1.0  0.83224  0.42234  0.06247  1.0000
  C   C306      1.0  0.83224  0.40462  0.03144  1.0000
  C   C307      1.0  0.83224  0.40461  0.96967  1.0000
  C   C308      1.0  0.83224  0.42232  0.93841  1.0000
  C   C309      1.0  0.83223  0.52060  0.76759  1.0000
  C   C310      1.0  0.83223  0.51023  0.71442  1.0000
  C   C311      1.0  0.83223  0.48964  0.71444  1.0000
  C   C312      1.0  0.83224  0.47924  0.76758  1.0000
  N   N54       1.0  0.83223  0.52887  0.00010  1.0000
  C   C313      1.0  0.83223  0.54102  0.95213  1.0000
  N   N55       1.0  0.83223  0.53532  0.89440  1.0000
  C   C314      1.0  0.83223  0.56041  0.97089  1.0000
  C   C315      1.0  0.83223  0.56042  0.03051  1.0000
  C   C316      1.0  0.83223  0.54107  0.04929  1.0000
  C   C317      1.0  0.83223  0.57768  0.06272  1.0000
  C   C318      1.0  0.83223  0.59539  0.03148  1.0000
  C   C319      1.0  0.83223  0.59536  0.96966  1.0000
  C   C320      1.0  0.83223  0.57762  0.93855  1.0000
  N   N56       1.0  0.83223  0.53546  0.10696  1.0000
  H   H97       1.0  0.83223  0.53587  0.23301  1.0000
  H   H98       1.0  0.83224  0.46427  0.23278  1.0000
  H   H99       1.0  0.83224  0.42256  0.10775  1.0000
  H   H100      1.0  0.83224  0.42252  0.89315  1.0000
  H   H101      1.0  0.83223  0.53568  0.76822  1.0000
  H   H102      1.0  0.83224  0.46415  0.76823  1.0000
  H   H103      1.0  0.83223  0.57749  0.10800  1.0000
  H   H104      1.0  0.83223  0.57738  0.89325  1.0000
  C   C321      1.0  0.83223  0.61313  0.06179  1.0000
  C   C322      1.0  0.83223  0.63081  0.03097  1.0000
  C   C323      1.0  0.83223  0.63078  0.96982  1.0000
  C   C324      1.0  0.83223  0.61307  0.93919  1.0000
  C   C325      1.0  0.83223  0.52048  0.34001  1.0000
  C   C326      1.0  0.83223  0.51023  0.39305  1.0000
  C   C327      1.0  0.83223  0.48985  0.39298  1.0000
  C   C328      1.0  0.83224  0.47962  0.33989  1.0000
  C   C329      1.0  0.83224  0.38689  0.06192  1.0000
  C   C330      1.0  0.83224  0.36921  0.03128  1.0000
  C   C331      1.0  0.83224  0.36921  0.97015  1.0000
  C   C332      1.0  0.83224  0.38688  0.93938  1.0000
  C   C333      1.0  0.83223  0.52038  0.66121  1.0000
  C   C334      1.0  0.83223  0.51018  0.60822  1.0000
  C   C335      1.0  0.83223  0.48982  0.60821  1.0000
  C   C336      1.0  0.83224  0.47956  0.66124  1.0000
  H   H105      1.0  0.83223  0.61319  0.10706  1.0000
  O   O49       1.0  0.83223  0.64807  0.06062  1.0000
  O   O50       1.0  0.83223  0.64802  0.94000  1.0000
  H   H106      1.0  0.83223  0.61310  0.89387  1.0000
  H   H107      1.0  0.83223  0.53558  0.34015  1.0000
  O   O51       1.0  0.83223  0.52012  0.44485  1.0000
  O   O52       1.0  0.83224  0.47991  0.44474  1.0000
  H   H108      1.0  0.83224  0.46453  0.34000  1.0000
  H   H109      1.0  0.83224  0.38685  0.10716  1.0000
  O   O53       1.0  0.83224  0.35195  0.06108  1.0000
  O   O54       1.0  0.83224  0.35196  0.94058  1.0000
  H   H110      1.0  0.83224  0.38684  0.89414  1.0000
  H   H111      1.0  0.83223  0.53545  0.66108  1.0000
  O   O55       1.0  0.83223  0.52009  0.55644  1.0000
  O   O56       1.0  0.83224  0.47994  0.55648  1.0000
  H   H112      1.0  0.83224  0.46448  0.66113  1.0000
  Ni  Ni7       1.0  0.83223  0.49998  0.00010  1.0000
  C   C337      1.0  0.52078  0.83223  0.23360  1.0000
  C   C338      1.0  0.51038  0.83223  0.28673  1.0000
  C   C339      1.0  0.48976  0.83223  0.28665  1.0000
  C   C340      1.0  0.47937  0.83223  0.23346  1.0000
  C   C341      1.0  0.49014  0.83223  0.18180  1.0000
  C   C342      1.0  0.51002  0.83223  0.18187  1.0000
  C   C343      1.0  0.51626  0.83223  0.12379  1.0000
  N   N57       1.0  0.50005  0.83223  0.08715  1.0000
  C   C344      1.0  0.48387  0.83223  0.12367  1.0000
  N   N58       1.0  0.46461  0.83223  0.10663  1.0000
  C   C345      1.0  0.45893  0.83223  0.04895  1.0000
  N   N59       1.0  0.47111  0.83223  0.00010  1.0000
  C   C346      1.0  0.45891  0.83223  0.95182  1.0000
  C   C347      1.0  0.43956  0.83223  0.97059  1.0000
  C   C348      1.0  0.43955  0.83223  0.03016  1.0000
  N   N60       1.0  0.49991  0.83223  0.91390  1.0000
  C   C349      1.0  0.48372  0.83223  0.87737  1.0000
  N   N61       1.0  0.46453  0.83223  0.89422  1.0000
  C   C350      1.0  0.48997  0.83223  0.81926  1.0000
  C   C351      1.0  0.50983  0.83223  0.81927  1.0000
  C   C352      1.0  0.51610  0.83223  0.87737  1.0000
  C   C353      1.0  0.42233  0.83223  0.06247  1.0000
  C   C354      1.0  0.40462  0.83223  0.03144  1.0000
  C   C355      1.0  0.40461  0.83223  0.96967  1.0000
  C   C356      1.0  0.42231  0.83223  0.93841  1.0000
  C   C357      1.0  0.52060  0.83223  0.76759  1.0000
  C   C358      1.0  0.51023  0.83223  0.71442  1.0000
  C   C359      1.0  0.48964  0.83223  0.71444  1.0000
  C   C360      1.0  0.47923  0.83223  0.76758  1.0000
  N   N62       1.0  0.52887  0.83223  0.00010  1.0000
  C   C361      1.0  0.54102  0.83223  0.95213  1.0000
  N   N63       1.0  0.53533  0.83223  0.89440  1.0000
  C   C362      1.0  0.56041  0.83223  0.97089  1.0000
  C   C363      1.0  0.56043  0.83223  0.03051  1.0000
  C   C364      1.0  0.54107  0.83223  0.04929  1.0000
  C   C365      1.0  0.57768  0.83223  0.06272  1.0000
  C   C366      1.0  0.59540  0.83223  0.03148  1.0000
  C   C367      1.0  0.59537  0.83223  0.96966  1.0000
  C   C368      1.0  0.57762  0.83223  0.93855  1.0000
  N   N64       1.0  0.53546  0.83223  0.10696  1.0000
  H   H113      1.0  0.53587  0.83223  0.23301  1.0000
  H   H114      1.0  0.46426  0.83223  0.23278  1.0000
  H   H115      1.0  0.42256  0.83223  0.10775  1.0000
  H   H116      1.0  0.42251  0.83223  0.89315  1.0000
  H   H117      1.0  0.53568  0.83223  0.76822  1.0000
  H   H118      1.0  0.46415  0.83223  0.76823  1.0000
  H   H119      1.0  0.57749  0.83223  0.10800  1.0000
  H   H120      1.0  0.57739  0.83223  0.89325  1.0000
  C   C369      1.0  0.61314  0.83223  0.06179  1.0000
  C   C370      1.0  0.63081  0.83223  0.03097  1.0000
  C   C371      1.0  0.63078  0.83223  0.96982  1.0000
  C   C372      1.0  0.61308  0.83223  0.93919  1.0000
  C   C373      1.0  0.52049  0.83223  0.34001  1.0000
  C   C374      1.0  0.51023  0.83223  0.39305  1.0000
  C   C375      1.0  0.48985  0.83223  0.39298  1.0000
  C   C376      1.0  0.47962  0.83223  0.33989  1.0000
  C   C377      1.0  0.38689  0.83223  0.06192  1.0000
  C   C378      1.0  0.36920  0.83223  0.03128  1.0000
  C   C379      1.0  0.36920  0.83223  0.97015  1.0000
  C   C380      1.0  0.38688  0.83223  0.93938  1.0000
  C   C381      1.0  0.52038  0.83223  0.66121  1.0000
  C   C382      1.0  0.51018  0.83223  0.60822  1.0000
  C   C383      1.0  0.48982  0.83223  0.60821  1.0000
  C   C384      1.0  0.47956  0.83223  0.66124  1.0000
  H   H121      1.0  0.61319  0.83223  0.10706  1.0000
  O   O57       1.0  0.64808  0.83223  0.06062  1.0000
  O   O58       1.0  0.64803  0.83223  0.94000  1.0000
  H   H122      1.0  0.61311  0.83223  0.89387  1.0000
  H   H123      1.0  0.53558  0.83223  0.34015  1.0000
  O   O59       1.0  0.52012  0.83223  0.44485  1.0000
  O   O60       1.0  0.47991  0.83223  0.44474  1.0000
  H   H124      1.0  0.46452  0.83223  0.34000  1.0000
  H   H125      1.0  0.38684  0.83223  0.10716  1.0000
  O   O61       1.0  0.35195  0.83223  0.06108  1.0000
  O   O62       1.0  0.35195  0.83223  0.94058  1.0000
  H   H126      1.0  0.38683  0.83223  0.89414  1.0000
  H   H127      1.0  0.53545  0.83223  0.66108  1.0000
  O   O63       1.0  0.52009  0.83223  0.55644  1.0000
  O   O64       1.0  0.47994  0.83223  0.55648  1.0000
  H   H128      1.0  0.46448  0.83223  0.66113  1.0000
  Ni  Ni8       1.0  0.49998  0.83223  0.00010  1.0000
  Cu  Cu1       1.0  0.16632  0.00010  0.00168  1.0000
  Cu  Cu2       1.0  0.00010  0.16634  0.00168  1.0000
  Cu  Cu3       1.0  0.83368  0.99990  0.00010  1.0000
  Cu  Cu4       1.0  0.99990  0.83366  0.00010  1.0000
  Zn  Zn1       1.0  0.16740  0.33334  0.00210  1.0000
  Zn  Zn2       1.0  0.66667  0.16741  0.00117  1.0000
  Zn  Zn3       1.0  0.83259  0.66666  0.00010  1.0000
  Zn  Zn4       1.0  0.33333  0.83259  0.00102  1.0000
  Zn  Zn5       1.0  0.16741  0.66666  0.00117  1.0000
  Zn  Zn6       1.0  0.33333  0.16741  0.00210  1.0000
  Zn  Zn7       1.0  0.83260  0.33334  0.00102  1.0000
  Zn  Zn8       1.0  0.66666  0.83259  0.00010  1.0000
  Cu  Cu5       1.0  0.16777  0.49998  0.50156  1.0000
  Cu  Cu6       1.0  0.49998  0.16777  0.50156  1.0000
  Cu  Cu7       1.0  0.83223  0.50002  0.50062  1.0000
  Cu  Cu8       1.0  0.50002  0.83223  0.50062  1.0000
