data_image0
_chemical_formula_structural       C7NCNCNC3NCNC11NCNC7NHO2H2O2H2O2H2O2HNiC7NCNCNC3NCNC11NCNC7NHO2H2O2H2O2H2O2HNiC7NCNCNC3NCNC11NCNC7NHO2H2O2H2O2H2O2HNiC7NCNCNC3NCNC11NCNC7NHO2H2O2H2O2H2O2HNiC7NCNCNC3NCNC11NCNC7NHO2H2O2H2O2H2O2HNiC7NCNCNC3NCNC11NCNC7NHO2H2O2H2O2H2O2HNiC7NCNCNC3NCNC11NCNC7NHO2H2O2H2O2H2O2HNiC7NCNCNC3NCNC11NCNC7NHO2H2O2H2O2H2O2HNiCu4Zn8Cu4
_chemical_formula_sum              "C256 N64 H64 O64 Ni8 Cu8 Zn8"
_cell_length_a       57.7189
_cell_length_b       57.7196
_cell_length_c       19.2399
_cell_angle_alpha    89.9993
_cell_angle_beta     89.9996
_cell_angle_gamma    90.0007

_space_group_name_H-M_alt    "P 1"
_space_group_IT_number       1

loop_
  _space_group_symop_operation_xyz
  'x, y, z'

loop_
  _atom_site_type_symbol
  _atom_site_label
  _atom_site_symmetry_multiplicity
  _atom_site_fract_x
  _atom_site_fract_y
  _atom_site_fract_z
  _atom_site_occupancy
  C   C1        1.0  0.13964  0.06694  0.00010  1.0000
  C   C2        1.0  0.15318  0.04379  0.00010  1.0000
  C   C3        1.0  0.18014  0.04379  0.00010  1.0000
  C   C4        1.0  0.19369  0.06695  0.00010  1.0000
  C   C5        1.0  0.17956  0.08940  0.00010  1.0000
  C   C6        1.0  0.15377  0.08940  0.00010  1.0000
  C   C7        1.0  0.14572  0.11464  0.00010  1.0000
  N   N1        1.0  0.16666  0.13096  0.00010  1.0000
  C   C8        1.0  0.18761  0.11464  0.00010  1.0000
  N   N2        1.0  0.21232  0.12102  0.99990  1.0000
  C   C9        1.0  0.21870  0.14573  0.99990  1.0000
  N   N3        1.0  0.20237  0.16667  0.00010  1.0000
  C   C10       1.0  0.21869  0.18762  0.00010  1.0000
  C   C11       1.0  0.24393  0.17957  0.00010  1.0000
  C   C12       1.0  0.24394  0.15379  0.99990  1.0000
  N   N4        1.0  0.16666  0.20238  0.00010  1.0000
  C   C13       1.0  0.18761  0.21871  0.00010  1.0000
  N   N5        1.0  0.21232  0.21233  0.00010  1.0000
  C   C14       1.0  0.17955  0.24394  0.00010  1.0000
  C   C15       1.0  0.15376  0.24394  0.00010  1.0000
  C   C16       1.0  0.14571  0.21870  0.00010  1.0000
  C   C17       1.0  0.26640  0.13967  0.99990  1.0000
  C   C18       1.0  0.28954  0.15323  0.99990  1.0000
  C   C19       1.0  0.28953  0.18019  0.99990  1.0000
  C   C20       1.0  0.26638  0.19372  0.00010  1.0000
  C   C21       1.0  0.13963  0.26639  0.00010  1.0000
  C   C22       1.0  0.15317  0.28954  0.00010  1.0000
  C   C23       1.0  0.18012  0.28954  0.00010  1.0000
  C   C24       1.0  0.19367  0.26640  0.00010  1.0000
  N   N6        1.0  0.13096  0.16667  0.00010  1.0000
  C   C25       1.0  0.11463  0.18761  0.99990  1.0000
  N   N7        1.0  0.12101  0.21232  0.99990  1.0000
  C   C26       1.0  0.08940  0.17956  0.00010  1.0000
  C   C27       1.0  0.08939  0.15378  0.00010  1.0000
  C   C28       1.0  0.11463  0.14572  0.00010  1.0000
  C   C29       1.0  0.06694  0.13965  0.00010  1.0000
  C   C30       1.0  0.04379  0.15320  0.00010  1.0000
  C   C31       1.0  0.04380  0.18016  0.99990  1.0000
  C   C32       1.0  0.06695  0.19370  0.99990  1.0000
  N   N8        1.0  0.12101  0.12101  0.00010  1.0000
  H   H1        1.0  0.12145  0.06724  0.00010  1.0000
  O   O1        1.0  0.14198  0.02426  0.00010  1.0000
  O   O2        1.0  0.19134  0.02425  0.00010  1.0000
  H   H2        1.0  0.21188  0.06724  0.00010  1.0000
  H   H3        1.0  0.26612  0.12148  0.99990  1.0000
  O   O3        1.0  0.30909  0.14204  0.99990  1.0000
  O   O4        1.0  0.30906  0.19140  0.99990  1.0000
  H   H4        1.0  0.26607  0.21191  0.00010  1.0000
  H   H5        1.0  0.12144  0.26609  0.99990  1.0000
  O   O5        1.0  0.14196  0.30907  0.00010  1.0000
  O   O6        1.0  0.19133  0.30908  0.00010  1.0000
  H   H6        1.0  0.21186  0.26611  0.00010  1.0000
  H   H7        1.0  0.06723  0.12146  0.00010  1.0000
  O   O7        1.0  0.02425  0.14200  0.99990  1.0000
  O   O8        1.0  0.02426  0.19137  0.99990  1.0000
  H   H8        1.0  0.06725  0.21189  0.99990  1.0000
  Ni  Ni1       1.0  0.16666  0.16667  0.00010  1.0000
  C   C33       1.0  0.86036  0.06694  0.99990  1.0000
  C   C34       1.0  0.84681  0.04379  0.99990  1.0000
  C   C35       1.0  0.81986  0.04379  0.99990  1.0000
  C   C36       1.0  0.80631  0.06694  0.99990  1.0000
  C   C37       1.0  0.82044  0.08940  0.99990  1.0000
  C   C38       1.0  0.84622  0.08940  0.99990  1.0000
  C   C39       1.0  0.85428  0.11463  0.99990  1.0000
  N   N9        1.0  0.83333  0.13096  0.99990  1.0000
  C   C40       1.0  0.81238  0.11464  0.99990  1.0000
  N   N10       1.0  0.78767  0.12101  0.00010  1.0000
  C   C41       1.0  0.78130  0.14572  0.00010  1.0000
  N   N11       1.0  0.79762  0.16667  0.99990  1.0000
  C   C42       1.0  0.78130  0.18762  0.99990  1.0000
  C   C43       1.0  0.75607  0.17957  0.00010  1.0000
  C   C44       1.0  0.75606  0.15379  0.00010  1.0000
  N   N12       1.0  0.83333  0.20237  0.99990  1.0000
  C   C45       1.0  0.81239  0.21870  0.99990  1.0000
  N   N13       1.0  0.78768  0.21233  0.99990  1.0000
  C   C46       1.0  0.82045  0.24394  0.99990  1.0000
  C   C47       1.0  0.84623  0.24394  0.00010  1.0000
  C   C48       1.0  0.85429  0.21870  0.00010  1.0000
  C   C49       1.0  0.73359  0.13967  0.00010  1.0000
  C   C50       1.0  0.71045  0.15323  0.00010  1.0000
  C   C51       1.0  0.71046  0.18018  0.00010  1.0000
  C   C52       1.0  0.73362  0.19371  0.00010  1.0000
  C   C53       1.0  0.86037  0.26639  0.00010  1.0000
  C   C54       1.0  0.84683  0.28954  0.99990  1.0000
  C   C55       1.0  0.81987  0.28954  0.99990  1.0000
  C   C56       1.0  0.80632  0.26640  0.99990  1.0000
  N   N14       1.0  0.86904  0.16666  0.99990  1.0000
  C   C57       1.0  0.88536  0.18761  0.00010  1.0000
  N   N15       1.0  0.87899  0.21232  0.00010  1.0000
  C   C58       1.0  0.91060  0.17956  0.00010  1.0000
  C   C59       1.0  0.91060  0.15378  0.99990  1.0000
  C   C60       1.0  0.88536  0.14572  0.99990  1.0000
  C   C61       1.0  0.93306  0.13965  0.99990  1.0000
  C   C62       1.0  0.95621  0.15320  0.00010  1.0000
  C   C63       1.0  0.95620  0.18016  0.00010  1.0000
  C   C64       1.0  0.93305  0.19370  0.00010  1.0000
  N   N16       1.0  0.87899  0.12101  0.99990  1.0000
  H   H9        1.0  0.87855  0.06724  0.99990  1.0000
  O   O9        1.0  0.85802  0.02425  0.99990  1.0000
  O   O10       1.0  0.80865  0.02425  0.99990  1.0000
  H   H10       1.0  0.78812  0.06724  0.00010  1.0000
  H   H11       1.0  0.73388  0.12148  0.00010  1.0000
  O   O11       1.0  0.69091  0.14203  0.00010  1.0000
  O   O12       1.0  0.69093  0.19140  0.00010  1.0000
  H   H12       1.0  0.73393  0.21190  0.00010  1.0000
  H   H13       1.0  0.87856  0.26609  0.00010  1.0000
  O   O13       1.0  0.85804  0.30907  0.99990  1.0000
  O   O14       1.0  0.80867  0.30908  0.99990  1.0000
  H   H14       1.0  0.78813  0.26611  0.99990  1.0000
  H   H15       1.0  0.93277  0.12146  0.99990  1.0000
  O   O15       1.0  0.97575  0.14200  0.00010  1.0000
  O   O16       1.0  0.97574  0.19137  0.00010  1.0000
  H   H16       1.0  0.93274  0.21189  0.00010  1.0000
  Ni  Ni2       1.0  0.83333  0.16666  0.99990  1.0000
  C   C65       1.0  0.86036  0.93305  0.00010  1.0000
  C   C66       1.0  0.84682  0.95620  0.00010  1.0000
  C   C67       1.0  0.81986  0.95620  0.00010  1.0000
  C   C68       1.0  0.80631  0.93305  0.00010  1.0000
  C   C69       1.0  0.82044  0.91060  0.00010  1.0000
  C   C70       1.0  0.84622  0.91060  0.00010  1.0000
  C   C71       1.0  0.85428  0.88536  0.00010  1.0000
  N   N17       1.0  0.83333  0.86904  0.00010  1.0000
  C   C72       1.0  0.81238  0.88536  0.00010  1.0000
  N   N18       1.0  0.78767  0.87898  0.99990  1.0000
  C   C73       1.0  0.78130  0.85427  0.99990  1.0000
  N   N19       1.0  0.79762  0.83333  0.00010  1.0000
  C   C74       1.0  0.78130  0.81237  0.00010  1.0000
  C   C75       1.0  0.75607  0.82042  0.00010  1.0000
  C   C76       1.0  0.75606  0.84621  0.99990  1.0000
  N   N20       1.0  0.83333  0.79762  0.00010  1.0000
  C   C77       1.0  0.81239  0.78129  0.00010  1.0000
  N   N21       1.0  0.78768  0.78766  0.00010  1.0000
  C   C78       1.0  0.82045  0.75606  0.00010  1.0000
  C   C79       1.0  0.84623  0.75606  0.00010  1.0000
  C   C80       1.0  0.85428  0.78130  0.00010  1.0000
  C   C81       1.0  0.73359  0.86032  0.99990  1.0000
  C   C82       1.0  0.71045  0.84677  0.99990  1.0000
  C   C83       1.0  0.71046  0.81981  0.99990  1.0000
  C   C84       1.0  0.73362  0.80628  0.00010  1.0000
  C   C85       1.0  0.86037  0.73361  0.00010  1.0000
  C   C86       1.0  0.84683  0.71046  0.00010  1.0000
  C   C87       1.0  0.81987  0.71045  0.00010  1.0000
  C   C88       1.0  0.80632  0.73360  0.00010  1.0000
  N   N22       1.0  0.86904  0.83333  0.00010  1.0000
  C   C89       1.0  0.88536  0.81238  0.99990  1.0000
  N   N23       1.0  0.87899  0.78768  0.99990  1.0000
  C   C90       1.0  0.91060  0.82044  0.99990  1.0000
  C   C91       1.0  0.91060  0.84622  0.00010  1.0000
  C   C92       1.0  0.88536  0.85428  0.00010  1.0000
  C   C93       1.0  0.93306  0.86035  0.00010  1.0000
  C   C94       1.0  0.95621  0.84679  0.99990  1.0000
  C   C95       1.0  0.95620  0.81984  0.99990  1.0000
  C   C96       1.0  0.93305  0.80630  0.99990  1.0000
  N   N24       1.0  0.87899  0.87899  0.00010  1.0000
  H   H17       1.0  0.87855  0.93275  0.00010  1.0000
  O   O17       1.0  0.85802  0.97574  0.00010  1.0000
  O   O18       1.0  0.80866  0.97574  0.00010  1.0000
  H   H18       1.0  0.78812  0.93275  0.00010  1.0000
  H   H19       1.0  0.73388  0.87851  0.99990  1.0000
  O   O19       1.0  0.69091  0.85796  0.99990  1.0000
  O   O20       1.0  0.69093  0.80859  0.99990  1.0000
  H   H20       1.0  0.73393  0.78809  0.00010  1.0000
  H   H21       1.0  0.87856  0.73391  0.99990  1.0000
  O   O21       1.0  0.85804  0.69092  0.00010  1.0000
  O   O22       1.0  0.80867  0.69091  0.00010  1.0000
  H   H22       1.0  0.78813  0.73389  0.00010  1.0000
  H   H23       1.0  0.93277  0.87854  0.00010  1.0000
  O   O23       1.0  0.97575  0.85799  0.99990  1.0000
  O   O24       1.0  0.97574  0.80863  0.99990  1.0000
  H   H24       1.0  0.93274  0.78811  0.99990  1.0000
  Ni  Ni3       1.0  0.83333  0.83333  0.00010  1.0000
  C   C97       1.0  0.13964  0.93305  0.99990  1.0000
  C   C98       1.0  0.15318  0.95620  0.99990  1.0000
  C   C99       1.0  0.18014  0.95621  0.99990  1.0000
  C   C100      1.0  0.19369  0.93305  0.99990  1.0000
  C   C101      1.0  0.17956  0.91060  0.99990  1.0000
  C   C102      1.0  0.15377  0.91060  0.99990  1.0000
  C   C103      1.0  0.14572  0.88536  0.99990  1.0000
  N   N25       1.0  0.16666  0.86904  0.99990  1.0000
  C   C104      1.0  0.18761  0.88536  0.99990  1.0000
  N   N26       1.0  0.21232  0.87898  0.00010  1.0000
  C   C105      1.0  0.21870  0.85427  0.00010  1.0000
  N   N27       1.0  0.20237  0.83333  0.99990  1.0000
  C   C106      1.0  0.21869  0.81237  0.99990  1.0000
  C   C107      1.0  0.24393  0.82043  0.00010  1.0000
  C   C108      1.0  0.24394  0.84621  0.00010  1.0000
  N   N28       1.0  0.16666  0.79762  0.99990  1.0000
  C   C109      1.0  0.18761  0.78129  0.99990  1.0000
  N   N29       1.0  0.21232  0.78767  0.99990  1.0000
  C   C110      1.0  0.17955  0.75606  0.99990  1.0000
  C   C111      1.0  0.15376  0.75606  0.00010  1.0000
  C   C112      1.0  0.14571  0.78130  0.00010  1.0000
  C   C113      1.0  0.26640  0.86033  0.00010  1.0000
  C   C114      1.0  0.28954  0.84677  0.00010  1.0000
  C   C115      1.0  0.28953  0.81981  0.00010  1.0000
  C   C116      1.0  0.26638  0.80628  0.00010  1.0000
  C   C117      1.0  0.13963  0.73361  0.00010  1.0000
  C   C118      1.0  0.15317  0.71046  0.99990  1.0000
  C   C119      1.0  0.18012  0.71045  0.99990  1.0000
  C   C120      1.0  0.19367  0.73360  0.99990  1.0000
  N   N30       1.0  0.13096  0.83333  0.99990  1.0000
  C   C121      1.0  0.11463  0.81238  0.00010  1.0000
  N   N31       1.0  0.12100  0.78768  0.00010  1.0000
  C   C122      1.0  0.08940  0.82044  0.00010  1.0000
  C   C123      1.0  0.08939  0.84622  0.99990  1.0000
  C   C124      1.0  0.11463  0.85428  0.99990  1.0000
  C   C125      1.0  0.06694  0.86035  0.99990  1.0000
  C   C126      1.0  0.04379  0.84679  0.00010  1.0000
  C   C127      1.0  0.04380  0.81984  0.00010  1.0000
  C   C128      1.0  0.06695  0.80630  0.00010  1.0000
  N   N32       1.0  0.12101  0.87899  0.99990  1.0000
  H   H25       1.0  0.12145  0.93275  0.99990  1.0000
  O   O25       1.0  0.14198  0.97574  0.99990  1.0000
  O   O26       1.0  0.19134  0.97575  0.99990  1.0000
  H   H26       1.0  0.21188  0.93276  0.00010  1.0000
  H   H27       1.0  0.26612  0.87852  0.00010  1.0000
  O   O27       1.0  0.30909  0.85796  0.00010  1.0000
  O   O28       1.0  0.30906  0.80860  0.00010  1.0000
  H   H28       1.0  0.26607  0.78809  0.00010  1.0000
  H   H29       1.0  0.12144  0.73391  0.00010  1.0000
  O   O29       1.0  0.14196  0.69092  0.99990  1.0000
  O   O30       1.0  0.19132  0.69092  0.99990  1.0000
  H   H30       1.0  0.21186  0.73389  0.99990  1.0000
  H   H31       1.0  0.06723  0.87854  0.99990  1.0000
  O   O31       1.0  0.02425  0.85799  0.00010  1.0000
  O   O32       1.0  0.02426  0.80863  0.00010  1.0000
  H   H32       1.0  0.06725  0.78811  0.00010  1.0000
  Ni  Ni4       1.0  0.16666  0.83333  0.99990  1.0000
  C   C129      1.0  0.16640  0.40028  0.91902  1.0000
  C   C130      1.0  0.16646  0.37713  0.95965  1.0000
  C   C131      1.0  0.16654  0.37712  0.04052  1.0000
  C   C132      1.0  0.16658  0.40028  0.08117  1.0000
  C   C133      1.0  0.16653  0.42273  0.03878  1.0000
  C   C134      1.0  0.16643  0.42273  0.96143  1.0000
  C   C135      1.0  0.16640  0.44797  0.93727  1.0000
  N   N33       1.0  0.16648  0.46429  0.00010  1.0000
  C   C136      1.0  0.16656  0.44797  0.06296  1.0000
  N   N34       1.0  0.16667  0.45434  0.13709  1.0000
  C   C137      1.0  0.16666  0.47905  0.15622  1.0000
  N   N35       1.0  0.16658  0.50000  0.10724  1.0000
  C   C138      1.0  0.16654  0.52095  0.15620  1.0000
  C   C139      1.0  0.16662  0.51290  0.23191  1.0000
  C   C140      1.0  0.16668  0.48712  0.23193  1.0000
  N   N36       1.0  0.16653  0.53571  0.00010  1.0000
  C   C141      1.0  0.16646  0.55204  0.06296  1.0000
  N   N37       1.0  0.16643  0.54566  0.13708  1.0000
  C   C142      1.0  0.16651  0.57727  0.03878  1.0000
  C   C143      1.0  0.16661  0.57727  0.96143  1.0000
  C   C144      1.0  0.16663  0.55203  0.93727  1.0000
  C   C145      1.0  0.16672  0.47300  0.29932  1.0000
  C   C146      1.0  0.16672  0.48655  0.36875  1.0000
  C   C147      1.0  0.16670  0.51351  0.36872  1.0000
  C   C148      1.0  0.16663  0.52704  0.29925  1.0000
  C   C149      1.0  0.16665  0.59972  0.91903  1.0000
  C   C150      1.0  0.16658  0.62287  0.95965  1.0000
  C   C151      1.0  0.16650  0.62288  0.04052  1.0000
  C   C152      1.0  0.16647  0.59973  0.08117  1.0000
  N   N38       1.0  0.16655  0.50000  0.89300  1.0000
  C   C153      1.0  0.16666  0.52095  0.84403  1.0000
  N   N39       1.0  0.16674  0.54566  0.86315  1.0000
  C   C154      1.0  0.16666  0.51290  0.76832  1.0000
  C   C155      1.0  0.16654  0.48712  0.76831  1.0000
  C   C156      1.0  0.16647  0.47906  0.84402  1.0000
  C   C157      1.0  0.16654  0.47299  0.70093  1.0000
  C   C158      1.0  0.16665  0.48655  0.63149  1.0000
  C   C159      1.0  0.16672  0.51350  0.63152  1.0000
  C   C160      1.0  0.16673  0.52704  0.70098  1.0000
  N   N40       1.0  0.16635  0.45435  0.86315  1.0000
  H   H33       1.0  0.16635  0.40058  0.86446  1.0000
  O   O33       1.0  0.16644  0.35759  0.92603  1.0000
  O   O34       1.0  0.16658  0.35758  0.07412  1.0000
  H   H34       1.0  0.16665  0.40057  0.13574  1.0000
  H   H35       1.0  0.16674  0.45481  0.29847  1.0000
  O   O35       1.0  0.16673  0.47536  0.42739  1.0000
  O   O36       1.0  0.16674  0.52472  0.42731  1.0000
  H   H36       1.0  0.16661  0.54523  0.29834  1.0000
  H   H37       1.0  0.16671  0.59943  0.86447  1.0000
  O   O37       1.0  0.16657  0.64241  0.92603  1.0000
  O   O38       1.0  0.16645  0.64241  0.07413  1.0000
  H   H38       1.0  0.16642  0.59944  0.13573  1.0000
  H   H39       1.0  0.16648  0.45480  0.70180  1.0000
  O   O39       1.0  0.16669  0.47535  0.57287  1.0000
  O   O40       1.0  0.16678  0.52471  0.57291  1.0000
  H   H40       1.0  0.16679  0.54523  0.70190  1.0000
  Ni  Ni5       1.0  0.16650  0.50000  0.00010  1.0000
  C   C161      1.0  0.52703  0.16698  0.70088  1.0000
  C   C162      1.0  0.51349  0.16692  0.63143  1.0000
  C   C163      1.0  0.48653  0.16684  0.63142  1.0000
  C   C164      1.0  0.47299  0.16680  0.70087  1.0000
  C   C165      1.0  0.48711  0.16685  0.76824  1.0000
  C   C166      1.0  0.51290  0.16695  0.76825  1.0000
  C   C167      1.0  0.52095  0.16698  0.84396  1.0000
  N   N41       1.0  0.50000  0.16690  0.89292  1.0000
  C   C168      1.0  0.47905  0.16682  0.84395  1.0000
  N   N42       1.0  0.45434  0.16671  0.86308  1.0000
  C   C169      1.0  0.44797  0.16672  0.93721  1.0000
  N   N43       1.0  0.46429  0.16680  0.00010  1.0000
  C   C170      1.0  0.44797  0.16684  0.06290  1.0000
  C   C171      1.0  0.42274  0.16676  0.03875  1.0000
  C   C172      1.0  0.42273  0.16670  0.96140  1.0000
  N   N44       1.0  0.50000  0.16685  0.10717  1.0000
  C   C173      1.0  0.47905  0.16692  0.15616  1.0000
  N   N45       1.0  0.45434  0.16696  0.13703  1.0000
  C   C174      1.0  0.48711  0.16688  0.23187  1.0000
  C   C175      1.0  0.51289  0.16678  0.23186  1.0000
  C   C176      1.0  0.52095  0.16675  0.15615  1.0000
  C   C177      1.0  0.40026  0.16666  0.91904  1.0000
  C   C178      1.0  0.37712  0.16667  0.95971  1.0000
  C   C179      1.0  0.37713  0.16669  0.04058  1.0000
  C   C180      1.0  0.40029  0.16675  0.08117  1.0000
  C   C181      1.0  0.52703  0.16674  0.29922  1.0000
  C   C182      1.0  0.51349  0.16681  0.36867  1.0000
  C   C183      1.0  0.48653  0.16689  0.36867  1.0000
  C   C184      1.0  0.47298  0.16692  0.29924  1.0000
  N   N46       1.0  0.53571  0.16683  0.00010  1.0000
  C   C185      1.0  0.55203  0.16672  0.06290  1.0000
  N   N47       1.0  0.54566  0.16664  0.13702  1.0000
  C   C186      1.0  0.57727  0.16673  0.03874  1.0000
  C   C187      1.0  0.57727  0.16684  0.96140  1.0000
  C   C188      1.0  0.55203  0.16692  0.93721  1.0000
  C   C189      1.0  0.59973  0.16684  0.91902  1.0000
  C   C190      1.0  0.62288  0.16673  0.95968  1.0000
  C   C191      1.0  0.62287  0.16666  0.04056  1.0000
  C   C192      1.0  0.59971  0.16665  0.08117  1.0000
  N   N48       1.0  0.54566  0.16704  0.86309  1.0000
  H   H41       1.0  0.54522  0.16703  0.70178  1.0000
  O   O41       1.0  0.52470  0.16694  0.57282  1.0000
  O   O42       1.0  0.47533  0.16681  0.57280  1.0000
  H   H42       1.0  0.45480  0.16674  0.70176  1.0000
  H   H43       1.0  0.40055  0.16664  0.86447  1.0000
  O   O43       1.0  0.35758  0.16666  0.92612  1.0000
  O   O44       1.0  0.35760  0.16664  0.07422  1.0000
  H   H44       1.0  0.40059  0.16678  0.13574  1.0000
  H   H45       1.0  0.54522  0.16667  0.29832  1.0000
  O   O45       1.0  0.52469  0.16681  0.42727  1.0000
  O   O46       1.0  0.47533  0.16694  0.42729  1.0000
  H   H46       1.0  0.45479  0.16697  0.29836  1.0000
  H   H47       1.0  0.59944  0.16690  0.86445  1.0000
  O   O47       1.0  0.64242  0.16669  0.92609  1.0000
  O   O48       1.0  0.64240  0.16661  0.07419  1.0000
  H   H48       1.0  0.59941  0.16659  0.13573  1.0000
  Ni  Ni6       1.0  0.50000  0.16689  0.00010  1.0000
  C   C193      1.0  0.83316  0.47296  0.29938  1.0000
  C   C194      1.0  0.83322  0.48650  0.36883  1.0000
  C   C195      1.0  0.83330  0.51346  0.36884  1.0000
  C   C196      1.0  0.83334  0.52701  0.29939  1.0000
  C   C197      1.0  0.83329  0.51288  0.23202  1.0000
  C   C198      1.0  0.83319  0.48710  0.23202  1.0000
  C   C199      1.0  0.83316  0.47905  0.15631  1.0000
  N   N49       1.0  0.83324  0.49999  0.10734  1.0000
  C   C200      1.0  0.83332  0.52094  0.15631  1.0000
  N   N50       1.0  0.83343  0.54565  0.13718  1.0000
  C   C201      1.0  0.83341  0.55203  0.06305  1.0000
  N   N51       1.0  0.83333  0.53570  0.00010  1.0000
  C   C202      1.0  0.83330  0.55203  0.93736  1.0000
  C   C203      1.0  0.83338  0.57726  0.96152  1.0000
  C   C204      1.0  0.83344  0.57727  0.03886  1.0000
  N   N52       1.0  0.83328  0.50000  0.89309  1.0000
  C   C205      1.0  0.83322  0.52094  0.84410  1.0000
  N   N53       1.0  0.83318  0.54565  0.86323  1.0000
  C   C206      1.0  0.83326  0.51289  0.76840  1.0000
  C   C207      1.0  0.83336  0.48710  0.76840  1.0000
  C   C208      1.0  0.83339  0.47905  0.84411  1.0000
  C   C209      1.0  0.83348  0.59973  0.08122  1.0000
  C   C210      1.0  0.83347  0.62288  0.04055  1.0000
  C   C211      1.0  0.83345  0.62286  0.95969  1.0000
  C   C212      1.0  0.83339  0.59971  0.91909  1.0000
  C   C213      1.0  0.83340  0.47297  0.70104  1.0000
  C   C214      1.0  0.83333  0.48651  0.63160  1.0000
  C   C215      1.0  0.83325  0.51347  0.63159  1.0000
  C   C216      1.0  0.83322  0.52702  0.70102  1.0000
  N   N54       1.0  0.83331  0.46429  0.00010  1.0000
  C   C217      1.0  0.83342  0.44797  0.93736  1.0000
  N   N55       1.0  0.83350  0.45434  0.86324  1.0000
  C   C218      1.0  0.83341  0.42273  0.96152  1.0000
  C   C219      1.0  0.83330  0.42273  0.03887  1.0000
  C   C220      1.0  0.83322  0.44797  0.06305  1.0000
  C   C221      1.0  0.83330  0.40027  0.08124  1.0000
  C   C222      1.0  0.83341  0.37712  0.04058  1.0000
  C   C223      1.0  0.83348  0.37713  0.95970  1.0000
  C   C224      1.0  0.83348  0.40029  0.91909  1.0000
  N   N56       1.0  0.83310  0.45434  0.13717  1.0000
  H   H49       1.0  0.83310  0.45477  0.29848  1.0000
  O   O49       1.0  0.83320  0.47530  0.42744  1.0000
  O   O50       1.0  0.83333  0.52466  0.42746  1.0000
  H   H50       1.0  0.83340  0.54520  0.29850  1.0000
  H   H51       1.0  0.83350  0.59945  0.13579  1.0000
  O   O51       1.0  0.83348  0.64242  0.07414  1.0000
  O   O52       1.0  0.83349  0.64240  0.92604  1.0000
  H   H52       1.0  0.83336  0.59940  0.86452  1.0000
  H   H53       1.0  0.83346  0.45478  0.70194  1.0000
  O   O53       1.0  0.83332  0.47530  0.57299  1.0000
  O   O54       1.0  0.83320  0.52467  0.57297  1.0000
  H   H54       1.0  0.83317  0.54520  0.70190  1.0000
  H   H55       1.0  0.83324  0.40056  0.13581  1.0000
  O   O55       1.0  0.83344  0.35758  0.07418  1.0000
  O   O56       1.0  0.83353  0.35760  0.92607  1.0000
  H   H56       1.0  0.83355  0.40059  0.86453  1.0000
  Ni  Ni7       1.0  0.83325  0.50000  0.00010  1.0000
  C   C225      1.0  0.52703  0.83302  0.29937  1.0000
  C   C226      1.0  0.51349  0.83307  0.36883  1.0000
  C   C227      1.0  0.48653  0.83316  0.36884  1.0000
  C   C228      1.0  0.47298  0.83320  0.29938  1.0000
  C   C229      1.0  0.48711  0.83315  0.23201  1.0000
  C   C230      1.0  0.51289  0.83304  0.23201  1.0000
  C   C231      1.0  0.52095  0.83302  0.15630  1.0000
  N   N57       1.0  0.50000  0.83310  0.10733  1.0000
  C   C232      1.0  0.47905  0.83318  0.15631  1.0000
  N   N58       1.0  0.45434  0.83329  0.13718  1.0000
  C   C233      1.0  0.44796  0.83327  0.06305  1.0000
  N   N59       1.0  0.46429  0.83319  0.00010  1.0000
  C   C234      1.0  0.44797  0.83316  0.93735  1.0000
  C   C235      1.0  0.42273  0.83323  0.96151  1.0000
  C   C236      1.0  0.42272  0.83330  0.03886  1.0000
  N   N60       1.0  0.50000  0.83314  0.89308  1.0000
  C   C237      1.0  0.47905  0.83308  0.84410  1.0000
  N   N61       1.0  0.45434  0.83304  0.86322  1.0000
  C   C238      1.0  0.48711  0.83312  0.76839  1.0000
  C   C239      1.0  0.51289  0.83322  0.76840  1.0000
  C   C240      1.0  0.52095  0.83325  0.84411  1.0000
  C   C241      1.0  0.40026  0.83333  0.08122  1.0000
  C   C242      1.0  0.37712  0.83333  0.04056  1.0000
  C   C243      1.0  0.37713  0.83331  0.95969  1.0000
  C   C244      1.0  0.40028  0.83325  0.91909  1.0000
  C   C245      1.0  0.52702  0.83326  0.70104  1.0000
  C   C246      1.0  0.51348  0.83319  0.63159  1.0000
  C   C247      1.0  0.48653  0.83311  0.63158  1.0000
  C   C248      1.0  0.47298  0.83308  0.70102  1.0000
  N   N62       1.0  0.53570  0.83317  0.00010  1.0000
  C   C249      1.0  0.55203  0.83328  0.93735  1.0000
  N   N63       1.0  0.54565  0.83336  0.86324  1.0000
  C   C250      1.0  0.57726  0.83327  0.96151  1.0000
  C   C251      1.0  0.57727  0.83315  0.03886  1.0000
  C   C252      1.0  0.55203  0.83308  0.06304  1.0000
  C   C253      1.0  0.59973  0.83316  0.08123  1.0000
  C   C254      1.0  0.62287  0.83326  0.04057  1.0000
  C   C255      1.0  0.62286  0.83334  0.95969  1.0000
  C   C256      1.0  0.59971  0.83334  0.91908  1.0000
  N   N64       1.0  0.54565  0.83296  0.13716  1.0000
  H   H57       1.0  0.54522  0.83296  0.29847  1.0000
  O   O57       1.0  0.52470  0.83306  0.42744  1.0000
  O   O58       1.0  0.47533  0.83319  0.42746  1.0000
  H   H58       1.0  0.45479  0.83326  0.29849  1.0000
  H   H59       1.0  0.40055  0.83336  0.13579  1.0000
  O   O59       1.0  0.35757  0.83334  0.07414  1.0000
  O   O60       1.0  0.35760  0.83335  0.92604  1.0000
  H   H60       1.0  0.40059  0.83322  0.86452  1.0000
  H   H61       1.0  0.54521  0.83332  0.70193  1.0000
  O   O61       1.0  0.52469  0.83318  0.57298  1.0000
  O   O62       1.0  0.47532  0.83306  0.57297  1.0000
  H   H62       1.0  0.45479  0.83303  0.70190  1.0000
  H   H63       1.0  0.59944  0.83310  0.13580  1.0000
  O   O63       1.0  0.64242  0.83330  0.07416  1.0000
  O   O64       1.0  0.64240  0.83339  0.92606  1.0000
  H   H64       1.0  0.59940  0.83340  0.86452  1.0000
  Ni  Ni8       1.0  0.50000  0.83311  0.00010  1.0000
  Cu  Cu1       1.0  0.16666  0.99990  0.00010  1.0000
  Cu  Cu2       1.0  0.99990  0.16669  0.00010  1.0000
  Cu  Cu3       1.0  0.83334  0.99990  0.00010  1.0000
  Cu  Cu4       1.0  0.99990  0.83331  0.00010  1.0000
  Zn  Zn1       1.0  0.16658  0.33333  0.00010  1.0000
  Zn  Zn2       1.0  0.66667  0.16668  0.00010  1.0000
  Zn  Zn3       1.0  0.83342  0.66666  0.00010  1.0000
  Zn  Zn4       1.0  0.33333  0.83331  0.00010  1.0000
  Zn  Zn5       1.0  0.16658  0.66667  0.99990  1.0000
  Zn  Zn6       1.0  0.33333  0.16669  0.00010  1.0000
  Zn  Zn7       1.0  0.83342  0.33333  0.99990  1.0000
  Zn  Zn8       1.0  0.66666  0.83331  0.99990  1.0000
  Cu  Cu5       1.0  0.16673  0.50004  0.50012  1.0000
  Cu  Cu6       1.0  0.50001  0.16687  0.50005  1.0000
  Cu  Cu7       1.0  0.83326  0.49998  0.50022  1.0000
  Cu  Cu8       1.0  0.50001  0.83312  0.50021  1.0000
