data_image0
_chemical_formula_structural       C7NCNCNC3NCNC11NCNC7NHO2H2O2H2O2H2O2HNiC7NCNCNC3NCNC11NCNC7NHO2H2O2H2O2H2O2HNiC7NCNCNC3NCNC11NCNC7NHO2H2O2H2O2H2O2HNiC7NCNCNC3NCNC11NCNC7NHO2H2O2H2O2H2O2HNiC7NCNCNC3NCNC11NCNC7NHO2H2O2H2O2H2O2HNiC7NCNCNC3NCNC11NCNC7NHO2H2O2H2O2H2O2HNiC7NCNCNC3NCNC11NCNC7NHO2H2O2H2O2H2O2HNiC7NCNCNC3NCNC11NCNC7NHO2H2O2H2O2H2O2HNiC7NCNCNC3NCNC11NCNC7NHO2H2O2H2O2H2O2HNiC7NCNCNC3NCNC11NCNC7NHO2H2O2H2O2H2O2HNiC7NCNCNC3NCNC11NCNC7NHO2H2O2H2O2H2O2HNiC7NCNCNC3NCNC11NCNC7NHO2H2O2H2O2H2O2HNiCu4Zn8Cu12
_chemical_formula_sum              "C384 N96 H96 O96 Ni12 Cu16 Zn8"
_cell_length_a       76.9597
_cell_length_b       76.9585
_cell_length_c       19.2398
_cell_angle_alpha    90
_cell_angle_beta     90
_cell_angle_gamma    90

_space_group_name_H-M_alt    "P 1"
_space_group_IT_number       1

loop_
  _space_group_symop_operation_xyz
  'x, y, z'

loop_
  _atom_site_type_symbol
  _atom_site_label
  _atom_site_symmetry_multiplicity
  _atom_site_fract_x
  _atom_site_fract_y
  _atom_site_fract_z
  _atom_site_occupancy
  C   C1        1.0  0.39527  0.44979  0.00010  1.0000
  C   C2        1.0  0.38511  0.46716  0.00010  1.0000
  C   C3        1.0  0.36489  0.46715  0.00010  1.0000
  C   C4        1.0  0.35473  0.44979  0.00010  1.0000
  C   C5        1.0  0.36533  0.43295  0.00010  1.0000
  C   C6        1.0  0.38467  0.43295  0.00010  1.0000
  C   C7        1.0  0.39071  0.41402  0.00010  1.0000
  N   N1        1.0  0.37500  0.40178  0.00010  1.0000
  C   C8        1.0  0.35929  0.41402  0.00010  1.0000
  N   N2        1.0  0.34076  0.40924  0.99990  1.0000
  C   C9        1.0  0.33597  0.39070  0.99990  1.0000
  N   N3        1.0  0.34822  0.37499  0.00010  1.0000
  C   C10       1.0  0.33598  0.35928  0.00010  1.0000
  C   C11       1.0  0.31705  0.36532  0.00010  1.0000
  C   C12       1.0  0.31705  0.38465  0.99990  1.0000
  N   N4        1.0  0.37500  0.34822  0.00010  1.0000
  C   C13       1.0  0.35930  0.33597  0.00010  1.0000
  N   N5        1.0  0.34076  0.34075  0.00010  1.0000
  C   C14       1.0  0.36534  0.31704  0.00010  1.0000
  C   C15       1.0  0.38468  0.31705  0.00010  1.0000
  C   C16       1.0  0.39072  0.33597  0.00010  1.0000
  C   C17       1.0  0.30020  0.39524  0.99990  1.0000
  C   C18       1.0  0.28284  0.38507  0.99990  1.0000
  C   C19       1.0  0.28285  0.36485  0.99990  1.0000
  C   C20       1.0  0.30022  0.35471  0.00010  1.0000
  C   C21       1.0  0.39528  0.30021  0.00010  1.0000
  C   C22       1.0  0.38513  0.28284  0.00010  1.0000
  C   C23       1.0  0.36491  0.28284  0.00010  1.0000
  C   C24       1.0  0.35475  0.30020  0.00010  1.0000
  N   N6        1.0  0.40178  0.37500  0.00010  1.0000
  C   C25       1.0  0.41403  0.35929  0.99990  1.0000
  N   N7        1.0  0.40925  0.34076  0.99990  1.0000
  C   C26       1.0  0.43295  0.36533  0.99990  1.0000
  C   C27       1.0  0.43295  0.38467  0.00010  1.0000
  C   C28       1.0  0.41402  0.39071  0.00010  1.0000
  C   C29       1.0  0.44980  0.39526  0.00010  1.0000
  C   C30       1.0  0.46716  0.38510  0.00010  1.0000
  C   C31       1.0  0.46715  0.36488  0.99990  1.0000
  C   C32       1.0  0.44979  0.35473  0.99990  1.0000
  N   N8        1.0  0.40924  0.40924  0.00010  1.0000
  H   H1        1.0  0.40891  0.44957  0.00010  1.0000
  O   O1        1.0  0.39351  0.48181  0.00010  1.0000
  O   O2        1.0  0.35649  0.48181  0.00010  1.0000
  H   H2        1.0  0.34109  0.44957  0.00010  1.0000
  H   H3        1.0  0.30041  0.40888  0.99990  1.0000
  O   O3        1.0  0.26818  0.39347  0.99990  1.0000
  O   O4        1.0  0.26821  0.35644  0.99990  1.0000
  H   H4        1.0  0.30045  0.34107  0.00010  1.0000
  H   H5        1.0  0.40892  0.30043  0.99990  1.0000
  O   O5        1.0  0.39354  0.26819  0.00010  1.0000
  O   O6        1.0  0.35651  0.26818  0.00010  1.0000
  H   H6        1.0  0.34111  0.30041  0.00010  1.0000
  H   H7        1.0  0.44958  0.40891  0.00010  1.0000
  O   O7        1.0  0.48181  0.39350  0.99990  1.0000
  O   O8        1.0  0.48180  0.35648  0.99990  1.0000
  H   H8        1.0  0.44956  0.34109  0.99990  1.0000
  Ni  Ni1       1.0  0.37500  0.37500  0.00010  1.0000
  C   C33       1.0  0.60473  0.44979  0.99990  1.0000
  C   C34       1.0  0.61489  0.46716  0.99990  1.0000
  C   C35       1.0  0.63511  0.46715  0.99990  1.0000
  C   C36       1.0  0.64527  0.44979  0.00010  1.0000
  C   C37       1.0  0.63467  0.43295  0.99990  1.0000
  C   C38       1.0  0.61533  0.43295  0.99990  1.0000
  C   C39       1.0  0.60929  0.41402  0.99990  1.0000
  N   N9        1.0  0.62500  0.40178  0.99990  1.0000
  C   C40       1.0  0.64071  0.41402  0.99990  1.0000
  N   N10       1.0  0.65924  0.40924  0.00010  1.0000
  C   C41       1.0  0.66403  0.39070  0.00010  1.0000
  N   N11       1.0  0.65178  0.37499  0.99990  1.0000
  C   C42       1.0  0.66402  0.35928  0.99990  1.0000
  C   C43       1.0  0.68295  0.36532  0.00010  1.0000
  C   C44       1.0  0.68295  0.38465  0.00010  1.0000
  N   N12       1.0  0.62500  0.34822  0.99990  1.0000
  C   C45       1.0  0.64070  0.33597  0.99990  1.0000
  N   N13       1.0  0.65924  0.34075  0.99990  1.0000
  C   C46       1.0  0.63466  0.31704  0.99990  1.0000
  C   C47       1.0  0.61532  0.31705  0.00010  1.0000
  C   C48       1.0  0.60928  0.33597  0.00010  1.0000
  C   C49       1.0  0.69980  0.39524  0.00010  1.0000
  C   C50       1.0  0.71716  0.38507  0.00010  1.0000
  C   C51       1.0  0.71715  0.36485  0.00010  1.0000
  C   C52       1.0  0.69978  0.35471  0.00010  1.0000
  C   C53       1.0  0.60472  0.30021  0.00010  1.0000
  C   C54       1.0  0.61487  0.28284  0.99990  1.0000
  C   C55       1.0  0.63509  0.28284  0.99990  1.0000
  C   C56       1.0  0.64525  0.30020  0.99990  1.0000
  N   N14       1.0  0.59822  0.37500  0.99990  1.0000
  C   C57       1.0  0.58597  0.35929  0.00010  1.0000
  N   N15       1.0  0.59075  0.34076  0.00010  1.0000
  C   C58       1.0  0.56705  0.36533  0.00010  1.0000
  C   C59       1.0  0.56705  0.38467  0.99990  1.0000
  C   C60       1.0  0.58598  0.39071  0.99990  1.0000
  C   C61       1.0  0.55020  0.39526  0.99990  1.0000
  C   C62       1.0  0.53284  0.38510  0.00010  1.0000
  C   C63       1.0  0.53285  0.36488  0.00010  1.0000
  C   C64       1.0  0.55021  0.35473  0.00010  1.0000
  N   N16       1.0  0.59076  0.40924  0.99990  1.0000
  H   H9        1.0  0.59109  0.44957  0.99990  1.0000
  O   O9        1.0  0.60649  0.48181  0.99990  1.0000
  O   O10       1.0  0.64351  0.48181  0.99990  1.0000
  H   H10       1.0  0.65891  0.44957  0.00010  1.0000
  H   H11       1.0  0.69959  0.40888  0.00010  1.0000
  O   O11       1.0  0.73182  0.39347  0.00010  1.0000
  O   O12       1.0  0.73179  0.35644  0.00010  1.0000
  H   H12       1.0  0.69955  0.34107  0.00010  1.0000
  H   H13       1.0  0.59108  0.30043  0.00010  1.0000
  O   O13       1.0  0.60646  0.26819  0.99990  1.0000
  O   O14       1.0  0.64349  0.26818  0.99990  1.0000
  H   H14       1.0  0.65889  0.30041  0.99990  1.0000
  H   H15       1.0  0.55042  0.40891  0.99990  1.0000
  O   O15       1.0  0.51819  0.39350  0.00010  1.0000
  O   O16       1.0  0.51820  0.35648  0.00010  1.0000
  H   H16       1.0  0.55044  0.34109  0.00010  1.0000
  Ni  Ni2       1.0  0.62500  0.37500  0.99990  1.0000
  C   C65       1.0  0.60473  0.55021  0.00010  1.0000
  C   C66       1.0  0.61489  0.53284  0.00010  1.0000
  C   C67       1.0  0.63511  0.53285  0.00010  1.0000
  C   C68       1.0  0.64527  0.55021  0.00010  1.0000
  C   C69       1.0  0.63467  0.56705  0.00010  1.0000
  C   C70       1.0  0.61533  0.56705  0.00010  1.0000
  C   C71       1.0  0.60929  0.58598  0.00010  1.0000
  N   N17       1.0  0.62500  0.59822  0.00010  1.0000
  C   C72       1.0  0.64071  0.58598  0.00010  1.0000
  N   N18       1.0  0.65924  0.59076  0.99990  1.0000
  C   C73       1.0  0.66403  0.60930  0.99990  1.0000
  N   N19       1.0  0.65178  0.62501  0.00010  1.0000
  C   C74       1.0  0.66402  0.64072  0.00010  1.0000
  C   C75       1.0  0.68295  0.63468  0.00010  1.0000
  C   C76       1.0  0.68295  0.61535  0.99990  1.0000
  N   N20       1.0  0.62500  0.65178  0.00010  1.0000
  C   C77       1.0  0.64070  0.66403  0.00010  1.0000
  N   N21       1.0  0.65924  0.65925  0.00010  1.0000
  C   C78       1.0  0.63466  0.68296  0.00010  1.0000
  C   C79       1.0  0.61532  0.68295  0.00010  1.0000
  C   C80       1.0  0.60928  0.66403  0.00010  1.0000
  C   C81       1.0  0.69980  0.60476  0.99990  1.0000
  C   C82       1.0  0.71716  0.61493  0.99990  1.0000
  C   C83       1.0  0.71715  0.63515  0.99990  1.0000
  C   C84       1.0  0.69978  0.64529  0.00010  1.0000
  C   C85       1.0  0.60472  0.69979  0.00010  1.0000
  C   C86       1.0  0.61487  0.71716  0.00010  1.0000
  C   C87       1.0  0.63509  0.71716  0.00010  1.0000
  C   C88       1.0  0.64525  0.69980  0.00010  1.0000
  N   N22       1.0  0.59822  0.62500  0.00010  1.0000
  C   C89       1.0  0.58597  0.64071  0.99990  1.0000
  N   N23       1.0  0.59075  0.65924  0.99990  1.0000
  C   C90       1.0  0.56705  0.63467  0.99990  1.0000
  C   C91       1.0  0.56705  0.61533  0.00010  1.0000
  C   C92       1.0  0.58598  0.60929  0.00010  1.0000
  C   C93       1.0  0.55020  0.60474  0.00010  1.0000
  C   C94       1.0  0.53284  0.61490  0.00010  1.0000
  C   C95       1.0  0.53285  0.63512  0.99990  1.0000
  C   C96       1.0  0.55021  0.64527  0.99990  1.0000
  N   N24       1.0  0.59076  0.59076  0.00010  1.0000
  H   H17       1.0  0.59109  0.55043  0.00010  1.0000
  O   O17       1.0  0.60649  0.51819  0.00010  1.0000
  O   O18       1.0  0.64351  0.51819  0.00010  1.0000
  H   H18       1.0  0.65891  0.55043  0.00010  1.0000
  H   H19       1.0  0.69959  0.59112  0.99990  1.0000
  O   O19       1.0  0.73182  0.60653  0.99990  1.0000
  O   O20       1.0  0.73179  0.64356  0.99990  1.0000
  H   H20       1.0  0.69955  0.65893  0.00010  1.0000
  H   H21       1.0  0.59108  0.69957  0.99990  1.0000
  O   O21       1.0  0.60646  0.73181  0.00010  1.0000
  O   O22       1.0  0.64349  0.73182  0.00010  1.0000
  H   H22       1.0  0.65889  0.69959  0.00010  1.0000
  H   H23       1.0  0.55042  0.59109  0.00010  1.0000
  O   O23       1.0  0.51819  0.60650  0.99990  1.0000
  O   O24       1.0  0.51820  0.64352  0.99990  1.0000
  H   H24       1.0  0.55044  0.65891  0.99990  1.0000
  Ni  Ni3       1.0  0.62500  0.62500  0.00010  1.0000
  C   C97       1.0  0.39527  0.55021  0.99990  1.0000
  C   C98       1.0  0.38511  0.53284  0.99990  1.0000
  C   C99       1.0  0.36489  0.53285  0.99990  1.0000
  C   C100      1.0  0.35473  0.55021  0.00010  1.0000
  C   C101      1.0  0.36533  0.56705  0.99990  1.0000
  C   C102      1.0  0.38467  0.56705  0.99990  1.0000
  C   C103      1.0  0.39071  0.58598  0.99990  1.0000
  N   N25       1.0  0.37500  0.59822  0.99990  1.0000
  C   C104      1.0  0.35929  0.58598  0.99990  1.0000
  N   N26       1.0  0.34076  0.59076  0.00010  1.0000
  C   C105      1.0  0.33597  0.60930  0.00010  1.0000
  N   N27       1.0  0.34822  0.62501  0.99990  1.0000
  C   C106      1.0  0.33598  0.64072  0.99990  1.0000
  C   C107      1.0  0.31705  0.63468  0.00010  1.0000
  C   C108      1.0  0.31705  0.61535  0.00010  1.0000
  N   N28       1.0  0.37500  0.65178  0.99990  1.0000
  C   C109      1.0  0.35930  0.66403  0.99990  1.0000
  N   N29       1.0  0.34076  0.65925  0.99990  1.0000
  C   C110      1.0  0.36534  0.68296  0.99990  1.0000
  C   C111      1.0  0.38468  0.68295  0.00010  1.0000
  C   C112      1.0  0.39072  0.66403  0.00010  1.0000
  C   C113      1.0  0.30020  0.60476  0.00010  1.0000
  C   C114      1.0  0.28284  0.61493  0.00010  1.0000
  C   C115      1.0  0.28285  0.63515  0.00010  1.0000
  C   C116      1.0  0.30022  0.64529  0.00010  1.0000
  C   C117      1.0  0.39528  0.69979  0.00010  1.0000
  C   C118      1.0  0.38513  0.71716  0.99990  1.0000
  C   C119      1.0  0.36491  0.71716  0.99990  1.0000
  C   C120      1.0  0.35475  0.69980  0.99990  1.0000
  N   N30       1.0  0.40178  0.62500  0.99990  1.0000
  C   C121      1.0  0.41403  0.64071  0.00010  1.0000
  N   N31       1.0  0.40925  0.65924  0.00010  1.0000
  C   C122      1.0  0.43295  0.63467  0.00010  1.0000
  C   C123      1.0  0.43295  0.61533  0.99990  1.0000
  C   C124      1.0  0.41402  0.60929  0.99990  1.0000
  C   C125      1.0  0.44980  0.60474  0.99990  1.0000
  C   C126      1.0  0.46716  0.61490  0.00010  1.0000
  C   C127      1.0  0.46715  0.63512  0.00010  1.0000
  C   C128      1.0  0.44979  0.64527  0.00010  1.0000
  N   N32       1.0  0.40924  0.59076  0.99990  1.0000
  H   H25       1.0  0.40891  0.55043  0.99990  1.0000
  O   O25       1.0  0.39351  0.51819  0.99990  1.0000
  O   O26       1.0  0.35649  0.51819  0.99990  1.0000
  H   H26       1.0  0.34109  0.55043  0.00010  1.0000
  H   H27       1.0  0.30041  0.59112  0.00010  1.0000
  O   O27       1.0  0.26818  0.60653  0.00010  1.0000
  O   O28       1.0  0.26821  0.64356  0.00010  1.0000
  H   H28       1.0  0.30045  0.65893  0.00010  1.0000
  H   H29       1.0  0.40892  0.69957  0.00010  1.0000
  O   O29       1.0  0.39354  0.73181  0.99990  1.0000
  O   O30       1.0  0.35651  0.73182  0.99990  1.0000
  H   H30       1.0  0.34111  0.69959  0.99990  1.0000
  H   H31       1.0  0.44958  0.59109  0.99990  1.0000
  O   O31       1.0  0.48181  0.60650  0.00010  1.0000
  O   O32       1.0  0.48180  0.64352  0.00010  1.0000
  H   H32       1.0  0.44956  0.65891  0.00010  1.0000
  Ni  Ni4       1.0  0.37500  0.62500  0.99990  1.0000
  C   C129      1.0  0.10472  0.37473  0.70089  1.0000
  C   C130      1.0  0.11488  0.37478  0.63143  1.0000
  C   C131      1.0  0.13510  0.37484  0.63142  1.0000
  C   C132      1.0  0.14526  0.37488  0.70087  1.0000
  C   C133      1.0  0.13466  0.37484  0.76824  1.0000
  C   C134      1.0  0.11533  0.37476  0.76825  1.0000
  C   C135      1.0  0.10929  0.37473  0.84396  1.0000
  N   N33       1.0  0.12500  0.37480  0.89292  1.0000
  C   C136      1.0  0.14071  0.37486  0.84395  1.0000
  N   N34       1.0  0.15924  0.37495  0.86308  1.0000
  C   C137      1.0  0.16402  0.37494  0.93720  1.0000
  N   N35       1.0  0.15178  0.37487  0.00010  1.0000
  C   C138      1.0  0.16402  0.37485  0.06290  1.0000
  C   C139      1.0  0.18295  0.37491  0.03874  1.0000
  C   C140      1.0  0.18295  0.37496  0.96139  1.0000
  N   N36       1.0  0.12500  0.37483  0.10717  1.0000
  C   C141      1.0  0.14071  0.37478  0.15616  1.0000
  N   N37       1.0  0.15924  0.37476  0.13703  1.0000
  C   C142      1.0  0.13467  0.37482  0.23187  1.0000
  C   C143      1.0  0.11533  0.37489  0.23186  1.0000
  C   C144      1.0  0.10929  0.37491  0.15615  1.0000
  C   C145      1.0  0.19980  0.37499  0.91903  1.0000
  C   C146      1.0  0.21716  0.37499  0.95969  1.0000
  C   C147      1.0  0.21715  0.37497  0.04056  1.0000
  C   C148      1.0  0.19978  0.37492  0.08116  1.0000
  C   C149      1.0  0.10473  0.37492  0.29922  1.0000
  C   C150      1.0  0.11489  0.37487  0.36867  1.0000
  C   C151      1.0  0.13510  0.37481  0.36867  1.0000
  C   C152      1.0  0.14526  0.37479  0.29924  1.0000
  N   N38       1.0  0.09822  0.37485  0.00010  1.0000
  C   C153      1.0  0.08598  0.37493  0.06291  1.0000
  N   N39       1.0  0.09076  0.37499  0.13702  1.0000
  C   C154      1.0  0.06705  0.37492  0.03875  1.0000
  C   C155      1.0  0.06705  0.37483  0.96140  1.0000
  C   C156      1.0  0.08597  0.37478  0.93722  1.0000
  C   C157      1.0  0.05020  0.37483  0.91903  1.0000
  C   C158      1.0  0.03284  0.37491  0.95970  1.0000
  C   C159      1.0  0.03285  0.37496  0.04057  1.0000
  C   C160      1.0  0.05022  0.37497  0.08118  1.0000
  N   N40       1.0  0.09076  0.37469  0.86309  1.0000
  H   H33       1.0  0.09108  0.37469  0.70179  1.0000
  O   O33       1.0  0.10647  0.37476  0.57282  1.0000
  O   O34       1.0  0.14350  0.37487  0.57280  1.0000
  H   H34       1.0  0.15890  0.37493  0.70176  1.0000
  H   H35       1.0  0.19958  0.37501  0.86446  1.0000
  O   O35       1.0  0.23181  0.37500  0.92611  1.0000
  O   O36       1.0  0.23180  0.37501  0.07421  1.0000
  H   H36       1.0  0.19956  0.37490  0.13573  1.0000
  H   H37       1.0  0.09109  0.37496  0.29833  1.0000
  O   O37       1.0  0.10648  0.37486  0.42728  1.0000
  O   O38       1.0  0.14351  0.37477  0.42729  1.0000
  H   H38       1.0  0.15891  0.37475  0.29836  1.0000
  H   H39       1.0  0.05042  0.37478  0.86446  1.0000
  O   O39       1.0  0.01819  0.37493  0.92610  1.0000
  O   O40       1.0  0.01820  0.37500  0.07420  1.0000
  H   H40       1.0  0.05045  0.37502  0.13574  1.0000
  Ni  Ni5       1.0  0.12500  0.37481  0.00010  1.0000
  C   C161      1.0  0.62479  0.19979  0.08118  1.0000
  C   C162      1.0  0.62483  0.21716  0.04056  1.0000
  C   C163      1.0  0.62489  0.21716  0.95968  1.0000
  C   C164      1.0  0.62492  0.19979  0.91903  1.0000
  C   C165      1.0  0.62488  0.18295  0.96142  1.0000
  C   C166      1.0  0.62481  0.18295  0.03877  1.0000
  C   C167      1.0  0.62478  0.16402  0.06293  1.0000
  N   N41       1.0  0.62484  0.15178  0.00010  1.0000
  C   C168      1.0  0.62490  0.16402  0.93724  1.0000
  N   N42       1.0  0.62499  0.15924  0.86311  1.0000
  C   C169      1.0  0.62497  0.14071  0.84398  1.0000
  N   N43       1.0  0.62491  0.12500  0.89296  1.0000
  C   C170      1.0  0.62488  0.10928  0.84399  1.0000
  C   C171      1.0  0.62494  0.11532  0.76829  1.0000
  C   C172      1.0  0.62499  0.13466  0.76826  1.0000
  N   N44       1.0  0.62487  0.09822  0.00010  1.0000
  C   C173      1.0  0.62482  0.08597  0.93724  1.0000
  N   N45       1.0  0.62479  0.09075  0.86312  1.0000
  C   C174      1.0  0.62485  0.06704  0.96142  1.0000
  C   C175      1.0  0.62493  0.06705  0.03876  1.0000
  C   C176      1.0  0.62495  0.08597  0.06293  1.0000
  C   C177      1.0  0.62502  0.14525  0.70088  1.0000
  C   C178      1.0  0.62502  0.13509  0.63145  1.0000
  C   C179      1.0  0.62500  0.11487  0.63148  1.0000
  C   C180      1.0  0.62495  0.10472  0.70094  1.0000
  C   C181      1.0  0.62496  0.05021  0.08116  1.0000
  C   C182      1.0  0.62490  0.03284  0.04054  1.0000
  C   C183      1.0  0.62484  0.03284  0.95967  1.0000
  C   C184      1.0  0.62482  0.05020  0.91903  1.0000
  N   N46       1.0  0.62489  0.12500  0.10720  1.0000
  C   C185      1.0  0.62497  0.10929  0.15617  1.0000
  N   N47       1.0  0.62503  0.09076  0.13705  1.0000
  C   C186      1.0  0.62497  0.11532  0.23188  1.0000
  C   C187      1.0  0.62488  0.13466  0.23189  1.0000
  C   C188      1.0  0.62483  0.14071  0.15618  1.0000
  C   C189      1.0  0.62489  0.14526  0.29927  1.0000
  C   C190      1.0  0.62497  0.13509  0.36871  1.0000
  C   C191      1.0  0.62502  0.11487  0.36868  1.0000
  C   C192      1.0  0.62502  0.10472  0.29922  1.0000
  N   N48       1.0  0.62474  0.15924  0.13705  1.0000
  H   H41       1.0  0.62475  0.19957  0.13575  1.0000
  O   O41       1.0  0.62482  0.23181  0.07418  1.0000
  O   O42       1.0  0.62492  0.23181  0.92608  1.0000
  H   H42       1.0  0.62497  0.19957  0.86447  1.0000
  H   H43       1.0  0.62504  0.15889  0.70174  1.0000
  O   O43       1.0  0.62502  0.14348  0.57281  1.0000
  O   O44       1.0  0.62503  0.10646  0.57288  1.0000
  H   H44       1.0  0.62493  0.09108  0.70186  1.0000
  H   H45       1.0  0.62500  0.05043  0.13573  1.0000
  O   O45       1.0  0.62489  0.01819  0.07416  1.0000
  O   O46       1.0  0.62480  0.01819  0.92606  1.0000
  H   H46       1.0  0.62478  0.05042  0.86446  1.0000
  H   H47       1.0  0.62484  0.15890  0.29840  1.0000
  O   O47       1.0  0.62500  0.14349  0.42733  1.0000
  O   O48       1.0  0.62506  0.10646  0.42729  1.0000
  H   H48       1.0  0.62507  0.09108  0.29830  1.0000
  Ni  Ni6       1.0  0.62485  0.12500  0.00010  1.0000
  C   C193      1.0  0.89528  0.62527  0.70089  1.0000
  C   C194      1.0  0.88512  0.62522  0.63143  1.0000
  C   C195      1.0  0.86490  0.62516  0.63142  1.0000
  C   C196      1.0  0.85474  0.62512  0.70087  1.0000
  C   C197      1.0  0.86534  0.62516  0.76824  1.0000
  C   C198      1.0  0.88467  0.62524  0.76825  1.0000
  C   C199      1.0  0.89071  0.62527  0.84396  1.0000
  N   N49       1.0  0.87500  0.62520  0.89292  1.0000
  C   C200      1.0  0.85929  0.62514  0.84395  1.0000
  N   N50       1.0  0.84076  0.62505  0.86308  1.0000
  C   C201      1.0  0.83598  0.62506  0.93720  1.0000
  N   N51       1.0  0.84822  0.62513  0.00010  1.0000
  C   C202      1.0  0.83598  0.62515  0.06290  1.0000
  C   C203      1.0  0.81705  0.62509  0.03874  1.0000
  C   C204      1.0  0.81705  0.62504  0.96139  1.0000
  N   N52       1.0  0.87500  0.62517  0.10717  1.0000
  C   C205      1.0  0.85929  0.62522  0.15616  1.0000
  N   N53       1.0  0.84076  0.62524  0.13703  1.0000
  C   C206      1.0  0.86533  0.62518  0.23187  1.0000
  C   C207      1.0  0.88467  0.62511  0.23186  1.0000
  C   C208      1.0  0.89071  0.62509  0.15615  1.0000
  C   C209      1.0  0.80020  0.62501  0.91903  1.0000
  C   C210      1.0  0.78284  0.62501  0.95969  1.0000
  C   C211      1.0  0.78285  0.62503  0.04056  1.0000
  C   C212      1.0  0.80022  0.62508  0.08116  1.0000
  C   C213      1.0  0.89527  0.62508  0.29922  1.0000
  C   C214      1.0  0.88511  0.62513  0.36867  1.0000
  C   C215      1.0  0.86490  0.62519  0.36867  1.0000
  C   C216      1.0  0.85474  0.62521  0.29924  1.0000
  N   N54       1.0  0.90178  0.62515  0.00010  1.0000
  C   C217      1.0  0.91402  0.62507  0.06291  1.0000
  N   N55       1.0  0.90924  0.62501  0.13702  1.0000
  C   C218      1.0  0.93295  0.62508  0.03875  1.0000
  C   C219      1.0  0.93295  0.62517  0.96140  1.0000
  C   C220      1.0  0.91403  0.62522  0.93722  1.0000
  C   C221      1.0  0.94980  0.62517  0.91903  1.0000
  C   C222      1.0  0.96716  0.62509  0.95970  1.0000
  C   C223      1.0  0.96715  0.62504  0.04057  1.0000
  C   C224      1.0  0.94978  0.62503  0.08118  1.0000
  N   N56       1.0  0.90924  0.62531  0.86309  1.0000
  H   H49       1.0  0.90892  0.62531  0.70179  1.0000
  O   O49       1.0  0.89353  0.62524  0.57282  1.0000
  O   O50       1.0  0.85650  0.62513  0.57280  1.0000
  H   H50       1.0  0.84110  0.62507  0.70176  1.0000
  H   H51       1.0  0.80042  0.62499  0.86446  1.0000
  O   O51       1.0  0.76819  0.62500  0.92611  1.0000
  O   O52       1.0  0.76820  0.62499  0.07421  1.0000
  H   H52       1.0  0.80044  0.62510  0.13573  1.0000
  H   H53       1.0  0.90891  0.62504  0.29833  1.0000
  O   O53       1.0  0.89352  0.62514  0.42728  1.0000
  O   O54       1.0  0.85649  0.62523  0.42729  1.0000
  H   H54       1.0  0.84109  0.62525  0.29836  1.0000
  H   H55       1.0  0.94958  0.62522  0.86446  1.0000
  O   O55       1.0  0.98181  0.62507  0.92610  1.0000
  O   O56       1.0  0.98180  0.62500  0.07420  1.0000
  H   H56       1.0  0.94955  0.62498  0.13574  1.0000
  Ni  Ni7       1.0  0.87500  0.62519  0.00010  1.0000
  C   C225      1.0  0.37521  0.80021  0.08118  1.0000
  C   C226      1.0  0.37517  0.78284  0.04056  1.0000
  C   C227      1.0  0.37511  0.78284  0.95968  1.0000
  C   C228      1.0  0.37508  0.80021  0.91903  1.0000
  C   C229      1.0  0.37512  0.81705  0.96142  1.0000
  C   C230      1.0  0.37519  0.81705  0.03877  1.0000
  C   C231      1.0  0.37522  0.83598  0.06293  1.0000
  N   N57       1.0  0.37516  0.84822  0.00010  1.0000
  C   C232      1.0  0.37510  0.83598  0.93724  1.0000
  N   N58       1.0  0.37501  0.84076  0.86311  1.0000
  C   C233      1.0  0.37503  0.85929  0.84398  1.0000
  N   N59       1.0  0.37509  0.87500  0.89296  1.0000
  C   C234      1.0  0.37512  0.89072  0.84399  1.0000
  C   C235      1.0  0.37506  0.88468  0.76829  1.0000
  C   C236      1.0  0.37501  0.86534  0.76826  1.0000
  N   N60       1.0  0.37513  0.90178  0.00010  1.0000
  C   C237      1.0  0.37518  0.91403  0.93724  1.0000
  N   N61       1.0  0.37521  0.90925  0.86312  1.0000
  C   C238      1.0  0.37515  0.93296  0.96142  1.0000
  C   C239      1.0  0.37507  0.93295  0.03876  1.0000
  C   C240      1.0  0.37505  0.91403  0.06293  1.0000
  C   C241      1.0  0.37498  0.85475  0.70088  1.0000
  C   C242      1.0  0.37498  0.86491  0.63145  1.0000
  C   C243      1.0  0.37500  0.88513  0.63148  1.0000
  C   C244      1.0  0.37505  0.89528  0.70094  1.0000
  C   C245      1.0  0.37504  0.94979  0.08116  1.0000
  C   C246      1.0  0.37510  0.96716  0.04054  1.0000
  C   C247      1.0  0.37516  0.96716  0.95967  1.0000
  C   C248      1.0  0.37518  0.94980  0.91903  1.0000
  N   N62       1.0  0.37511  0.87500  0.10720  1.0000
  C   C249      1.0  0.37503  0.89071  0.15617  1.0000
  N   N63       1.0  0.37497  0.90924  0.13705  1.0000
  C   C250      1.0  0.37503  0.88468  0.23188  1.0000
  C   C251      1.0  0.37512  0.86534  0.23189  1.0000
  C   C252      1.0  0.37517  0.85929  0.15618  1.0000
  C   C253      1.0  0.37511  0.85474  0.29927  1.0000
  C   C254      1.0  0.37503  0.86491  0.36871  1.0000
  C   C255      1.0  0.37498  0.88513  0.36868  1.0000
  C   C256      1.0  0.37498  0.89528  0.29922  1.0000
  N   N64       1.0  0.37526  0.84076  0.13705  1.0000
  H   H57       1.0  0.37525  0.80043  0.13575  1.0000
  O   O57       1.0  0.37518  0.76819  0.07418  1.0000
  O   O58       1.0  0.37508  0.76819  0.92608  1.0000
  H   H58       1.0  0.37503  0.80043  0.86447  1.0000
  H   H59       1.0  0.37496  0.84111  0.70174  1.0000
  O   O59       1.0  0.37498  0.85652  0.57281  1.0000
  O   O60       1.0  0.37497  0.89354  0.57288  1.0000
  H   H60       1.0  0.37507  0.90892  0.70186  1.0000
  H   H61       1.0  0.37500  0.94957  0.13573  1.0000
  O   O61       1.0  0.37511  0.98181  0.07416  1.0000
  O   O62       1.0  0.37520  0.98181  0.92606  1.0000
  H   H62       1.0  0.37522  0.94958  0.86446  1.0000
  H   H63       1.0  0.37516  0.84110  0.29840  1.0000
  O   O63       1.0  0.37500  0.85651  0.42733  1.0000
  O   O64       1.0  0.37494  0.89354  0.42729  1.0000
  H   H64       1.0  0.37493  0.90892  0.29830  1.0000
  Ni  Ni8       1.0  0.37515  0.87500  0.00010  1.0000
  C   C257      1.0  0.10472  0.62527  0.29940  1.0000
  C   C258      1.0  0.11488  0.62522  0.36886  1.0000
  C   C259      1.0  0.13510  0.62516  0.36887  1.0000
  C   C260      1.0  0.14526  0.62512  0.29941  1.0000
  C   C261      1.0  0.13466  0.62516  0.23204  1.0000
  C   C262      1.0  0.11533  0.62524  0.23204  1.0000
  C   C263      1.0  0.10929  0.62527  0.15633  1.0000
  N   N65       1.0  0.12500  0.62520  0.10736  1.0000
  C   C264      1.0  0.14071  0.62514  0.15633  1.0000
  N   N66       1.0  0.15924  0.62505  0.13721  1.0000
  C   C265      1.0  0.16403  0.62506  0.06308  1.0000
  N   N67       1.0  0.15178  0.62513  0.00010  1.0000
  C   C266      1.0  0.16402  0.62515  0.93738  1.0000
  C   C267      1.0  0.18295  0.62509  0.96154  1.0000
  C   C268      1.0  0.18295  0.62504  0.03889  1.0000
  N   N68       1.0  0.12500  0.62517  0.89311  1.0000
  C   C269      1.0  0.14071  0.62522  0.84413  1.0000
  N   N69       1.0  0.15924  0.62524  0.86325  1.0000
  C   C270      1.0  0.13467  0.62518  0.76842  1.0000
  C   C271      1.0  0.11533  0.62511  0.76842  1.0000
  C   C272      1.0  0.10929  0.62509  0.84414  1.0000
  C   C273      1.0  0.19980  0.62501  0.08125  1.0000
  C   C274      1.0  0.21716  0.62501  0.04058  1.0000
  C   C275      1.0  0.21715  0.62503  0.95971  1.0000
  C   C276      1.0  0.19978  0.62508  0.91911  1.0000
  C   C277      1.0  0.10473  0.62508  0.70106  1.0000
  C   C278      1.0  0.11488  0.62513  0.63162  1.0000
  C   C279      1.0  0.13510  0.62519  0.63161  1.0000
  C   C280      1.0  0.14526  0.62521  0.70105  1.0000
  N   N70       1.0  0.09822  0.62515  0.00010  1.0000
  C   C281      1.0  0.08598  0.62507  0.93738  1.0000
  N   N71       1.0  0.09076  0.62501  0.86326  1.0000
  C   C282      1.0  0.06705  0.62508  0.96154  1.0000
  C   C283      1.0  0.06705  0.62517  0.03889  1.0000
  C   C284      1.0  0.08598  0.62522  0.06307  1.0000
  C   C285      1.0  0.05020  0.62517  0.08126  1.0000
  C   C286      1.0  0.03284  0.62509  0.04060  1.0000
  C   C287      1.0  0.03285  0.62504  0.95972  1.0000
  C   C288      1.0  0.05022  0.62503  0.91911  1.0000
  N   N72       1.0  0.09076  0.62531  0.13719  1.0000
  H   H65       1.0  0.09108  0.62531  0.29850  1.0000
  O   O65       1.0  0.10647  0.62524  0.42747  1.0000
  O   O66       1.0  0.14350  0.62513  0.42749  1.0000
  H   H66       1.0  0.15890  0.62507  0.29852  1.0000
  H   H67       1.0  0.19959  0.62499  0.13582  1.0000
  O   O67       1.0  0.23182  0.62500  0.07417  1.0000
  O   O68       1.0  0.23180  0.62499  0.92607  1.0000
  H   H68       1.0  0.19955  0.62510  0.86455  1.0000
  H   H69       1.0  0.09109  0.62504  0.70196  1.0000
  O   O69       1.0  0.10648  0.62514  0.57301  1.0000
  O   O70       1.0  0.14350  0.62523  0.57299  1.0000
  H   H70       1.0  0.15890  0.62525  0.70192  1.0000
  H   H71       1.0  0.05042  0.62522  0.13583  1.0000
  O   O71       1.0  0.01819  0.62507  0.07419  1.0000
  O   O72       1.0  0.01820  0.62500  0.92609  1.0000
  H   H72       1.0  0.05045  0.62498  0.86455  1.0000
  Ni  Ni9       1.0  0.12500  0.62519  0.00010  1.0000
  C   C289      1.0  0.37521  0.19979  0.91902  1.0000
  C   C290      1.0  0.37517  0.21716  0.95965  1.0000
  C   C291      1.0  0.37511  0.21716  0.04052  1.0000
  C   C292      1.0  0.37508  0.19979  0.08117  1.0000
  C   C293      1.0  0.37512  0.18295  0.03878  1.0000
  C   C294      1.0  0.37519  0.18295  0.96143  1.0000
  C   C295      1.0  0.37522  0.16402  0.93727  1.0000
  N   N73       1.0  0.37516  0.15178  0.00010  1.0000
  C   C296      1.0  0.37510  0.16402  0.06296  1.0000
  N   N74       1.0  0.37501  0.15924  0.13709  1.0000
  C   C297      1.0  0.37503  0.14071  0.15622  1.0000
  N   N75       1.0  0.37509  0.12500  0.10724  1.0000
  C   C298      1.0  0.37512  0.10928  0.15621  1.0000
  C   C299      1.0  0.37506  0.11532  0.23191  1.0000
  C   C300      1.0  0.37501  0.13466  0.23194  1.0000
  N   N76       1.0  0.37513  0.09822  0.00010  1.0000
  C   C301      1.0  0.37518  0.08597  0.06296  1.0000
  N   N77       1.0  0.37521  0.09075  0.13708  1.0000
  C   C302      1.0  0.37515  0.06704  0.03878  1.0000
  C   C303      1.0  0.37507  0.06705  0.96144  1.0000
  C   C304      1.0  0.37505  0.08597  0.93727  1.0000
  C   C305      1.0  0.37498  0.14525  0.29933  1.0000
  C   C306      1.0  0.37498  0.13508  0.36876  1.0000
  C   C307      1.0  0.37500  0.11487  0.36872  1.0000
  C   C308      1.0  0.37505  0.10472  0.29926  1.0000
  C   C309      1.0  0.37504  0.05021  0.91903  1.0000
  C   C310      1.0  0.37510  0.03284  0.95965  1.0000
  C   C311      1.0  0.37516  0.03284  0.04052  1.0000
  C   C312      1.0  0.37518  0.05020  0.08117  1.0000
  N   N78       1.0  0.37511  0.12500  0.89300  1.0000
  C   C313      1.0  0.37503  0.10929  0.84403  1.0000
  N   N79       1.0  0.37497  0.09076  0.86315  1.0000
  C   C314      1.0  0.37503  0.11533  0.76832  1.0000
  C   C315      1.0  0.37512  0.13466  0.76831  1.0000
  C   C316      1.0  0.37517  0.14071  0.84402  1.0000
  C   C317      1.0  0.37511  0.14526  0.70093  1.0000
  C   C318      1.0  0.37503  0.13509  0.63149  1.0000
  C   C319      1.0  0.37498  0.11487  0.63152  1.0000
  C   C320      1.0  0.37498  0.10472  0.70098  1.0000
  N   N80       1.0  0.37526  0.15924  0.86315  1.0000
  H   H73       1.0  0.37525  0.19957  0.86445  1.0000
  O   O73       1.0  0.37518  0.23181  0.92602  1.0000
  O   O74       1.0  0.37508  0.23181  0.07412  1.0000
  H   H74       1.0  0.37503  0.19957  0.13574  1.0000
  H   H75       1.0  0.37496  0.15889  0.29847  1.0000
  O   O75       1.0  0.37498  0.14348  0.42739  1.0000
  O   O76       1.0  0.37497  0.10645  0.42732  1.0000
  H   H76       1.0  0.37507  0.09108  0.29834  1.0000
  H   H77       1.0  0.37500  0.05043  0.86447  1.0000
  O   O77       1.0  0.37511  0.01819  0.92603  1.0000
  O   O78       1.0  0.37520  0.01819  0.07413  1.0000
  H   H78       1.0  0.37522  0.05042  0.13574  1.0000
  H   H79       1.0  0.37516  0.15890  0.70180  1.0000
  O   O79       1.0  0.37500  0.14349  0.57287  1.0000
  O   O80       1.0  0.37494  0.10646  0.57291  1.0000
  H   H80       1.0  0.37493  0.09108  0.70190  1.0000
  Ni  Ni10      1.0  0.37515  0.12500  0.00010  1.0000
  C   C321      1.0  0.89528  0.37473  0.29940  1.0000
  C   C322      1.0  0.88512  0.37478  0.36886  1.0000
  C   C323      1.0  0.86490  0.37484  0.36887  1.0000
  C   C324      1.0  0.85474  0.37488  0.29941  1.0000
  C   C325      1.0  0.86534  0.37484  0.23204  1.0000
  C   C326      1.0  0.88467  0.37476  0.23204  1.0000
  C   C327      1.0  0.89071  0.37473  0.15633  1.0000
  N   N81       1.0  0.87500  0.37480  0.10736  1.0000
  C   C328      1.0  0.85929  0.37486  0.15633  1.0000
  N   N82       1.0  0.84076  0.37495  0.13721  1.0000
  C   C329      1.0  0.83597  0.37494  0.06308  1.0000
  N   N83       1.0  0.84822  0.37487  0.00010  1.0000
  C   C330      1.0  0.83598  0.37485  0.93738  1.0000
  C   C331      1.0  0.81705  0.37491  0.96154  1.0000
  C   C332      1.0  0.81705  0.37496  0.03889  1.0000
  N   N84       1.0  0.87500  0.37483  0.89311  1.0000
  C   C333      1.0  0.85929  0.37478  0.84413  1.0000
  N   N85       1.0  0.84076  0.37476  0.86325  1.0000
  C   C334      1.0  0.86533  0.37482  0.76842  1.0000
  C   C335      1.0  0.88467  0.37489  0.76842  1.0000
  C   C336      1.0  0.89071  0.37491  0.84414  1.0000
  C   C337      1.0  0.80020  0.37499  0.08125  1.0000
  C   C338      1.0  0.78284  0.37499  0.04058  1.0000
  C   C339      1.0  0.78285  0.37497  0.95971  1.0000
  C   C340      1.0  0.80022  0.37492  0.91911  1.0000
  C   C341      1.0  0.89527  0.37492  0.70106  1.0000
  C   C342      1.0  0.88512  0.37487  0.63162  1.0000
  C   C343      1.0  0.86490  0.37481  0.63161  1.0000
  C   C344      1.0  0.85474  0.37479  0.70105  1.0000
  N   N86       1.0  0.90178  0.37485  0.00010  1.0000
  C   C345      1.0  0.91402  0.37493  0.93738  1.0000
  N   N87       1.0  0.90924  0.37499  0.86326  1.0000
  C   C346      1.0  0.93295  0.37492  0.96154  1.0000
  C   C347      1.0  0.93295  0.37483  0.03889  1.0000
  C   C348      1.0  0.91402  0.37478  0.06307  1.0000
  C   C349      1.0  0.94980  0.37483  0.08126  1.0000
  C   C350      1.0  0.96716  0.37491  0.04060  1.0000
  C   C351      1.0  0.96715  0.37496  0.95972  1.0000
  C   C352      1.0  0.94978  0.37497  0.91911  1.0000
  N   N88       1.0  0.90924  0.37469  0.13719  1.0000
  H   H81       1.0  0.90892  0.37469  0.29850  1.0000
  O   O81       1.0  0.89353  0.37476  0.42747  1.0000
  O   O82       1.0  0.85650  0.37487  0.42749  1.0000
  H   H82       1.0  0.84110  0.37493  0.29852  1.0000
  H   H83       1.0  0.80041  0.37501  0.13582  1.0000
  O   O83       1.0  0.76818  0.37500  0.07417  1.0000
  O   O84       1.0  0.76820  0.37501  0.92607  1.0000
  H   H84       1.0  0.80045  0.37490  0.86455  1.0000
  H   H85       1.0  0.90891  0.37496  0.70196  1.0000
  O   O85       1.0  0.89352  0.37486  0.57301  1.0000
  O   O86       1.0  0.85650  0.37477  0.57299  1.0000
  H   H86       1.0  0.84110  0.37475  0.70192  1.0000
  H   H87       1.0  0.94958  0.37478  0.13583  1.0000
  O   O87       1.0  0.98181  0.37493  0.07419  1.0000
  O   O88       1.0  0.98180  0.37500  0.92609  1.0000
  H   H88       1.0  0.94955  0.37502  0.86455  1.0000
  Ni  Ni11      1.0  0.87500  0.37481  0.00010  1.0000
  C   C353      1.0  0.62479  0.80021  0.91902  1.0000
  C   C354      1.0  0.62483  0.78284  0.95965  1.0000
  C   C355      1.0  0.62489  0.78284  0.04052  1.0000
  C   C356      1.0  0.62492  0.80021  0.08117  1.0000
  C   C357      1.0  0.62488  0.81705  0.03878  1.0000
  C   C358      1.0  0.62481  0.81705  0.96143  1.0000
  C   C359      1.0  0.62478  0.83598  0.93727  1.0000
  N   N89       1.0  0.62484  0.84822  0.00010  1.0000
  C   C360      1.0  0.62490  0.83598  0.06296  1.0000
  N   N90       1.0  0.62499  0.84076  0.13709  1.0000
  C   C361      1.0  0.62497  0.85929  0.15622  1.0000
  N   N91       1.0  0.62491  0.87500  0.10724  1.0000
  C   C362      1.0  0.62488  0.89072  0.15621  1.0000
  C   C363      1.0  0.62494  0.88468  0.23191  1.0000
  C   C364      1.0  0.62499  0.86534  0.23194  1.0000
  N   N92       1.0  0.62487  0.90178  0.00010  1.0000
  C   C365      1.0  0.62482  0.91403  0.06296  1.0000
  N   N93       1.0  0.62479  0.90925  0.13708  1.0000
  C   C366      1.0  0.62485  0.93296  0.03878  1.0000
  C   C367      1.0  0.62493  0.93295  0.96144  1.0000
  C   C368      1.0  0.62495  0.91403  0.93727  1.0000
  C   C369      1.0  0.62502  0.85475  0.29933  1.0000
  C   C370      1.0  0.62502  0.86492  0.36876  1.0000
  C   C371      1.0  0.62500  0.88513  0.36872  1.0000
  C   C372      1.0  0.62495  0.89528  0.29926  1.0000
  C   C373      1.0  0.62496  0.94979  0.91903  1.0000
  C   C374      1.0  0.62490  0.96716  0.95965  1.0000
  C   C375      1.0  0.62484  0.96716  0.04052  1.0000
  C   C376      1.0  0.62482  0.94980  0.08117  1.0000
  N   N94       1.0  0.62489  0.87500  0.89300  1.0000
  C   C377      1.0  0.62497  0.89071  0.84403  1.0000
  N   N95       1.0  0.62503  0.90924  0.86315  1.0000
  C   C378      1.0  0.62497  0.88467  0.76832  1.0000
  C   C379      1.0  0.62488  0.86534  0.76831  1.0000
  C   C380      1.0  0.62483  0.85929  0.84402  1.0000
  C   C381      1.0  0.62489  0.85474  0.70093  1.0000
  C   C382      1.0  0.62497  0.86491  0.63149  1.0000
  C   C383      1.0  0.62502  0.88513  0.63152  1.0000
  C   C384      1.0  0.62502  0.89528  0.70098  1.0000
  N   N96       1.0  0.62474  0.84076  0.86315  1.0000
  H   H89       1.0  0.62475  0.80043  0.86445  1.0000
  O   O89       1.0  0.62482  0.76819  0.92602  1.0000
  O   O90       1.0  0.62492  0.76819  0.07412  1.0000
  H   H90       1.0  0.62497  0.80043  0.13574  1.0000
  H   H91       1.0  0.62504  0.84111  0.29847  1.0000
  O   O91       1.0  0.62502  0.85652  0.42739  1.0000
  O   O92       1.0  0.62503  0.89355  0.42732  1.0000
  H   H92       1.0  0.62493  0.90892  0.29834  1.0000
  H   H93       1.0  0.62500  0.94957  0.86447  1.0000
  O   O93       1.0  0.62489  0.98181  0.92603  1.0000
  O   O94       1.0  0.62480  0.98181  0.07413  1.0000
  H   H94       1.0  0.62478  0.94958  0.13574  1.0000
  H   H95       1.0  0.62484  0.84110  0.70180  1.0000
  O   O95       1.0  0.62500  0.85651  0.57287  1.0000
  O   O96       1.0  0.62506  0.89354  0.57291  1.0000
  H   H96       1.0  0.62507  0.90892  0.70190  1.0000
  Ni  Ni12      1.0  0.62485  0.87500  0.00010  1.0000
  Cu  Cu1       1.0  0.00010  0.37497  0.00010  1.0000
  Cu  Cu2       1.0  0.62485  0.99990  0.00010  1.0000
  Cu  Cu3       1.0  0.99990  0.62503  0.00010  1.0000
  Cu  Cu4       1.0  0.37515  0.00010  0.00010  1.0000
  Zn  Zn1       1.0  0.25000  0.37498  0.99990  1.0000
  Zn  Zn2       1.0  0.62492  0.25000  0.99990  1.0000
  Zn  Zn3       1.0  0.75000  0.62502  0.99990  1.0000
  Zn  Zn4       1.0  0.37508  0.75000  0.99990  1.0000
  Zn  Zn5       1.0  0.25000  0.62502  0.00010  1.0000
  Zn  Zn6       1.0  0.37508  0.25000  0.00010  1.0000
  Zn  Zn7       1.0  0.75000  0.37498  0.00010  1.0000
  Zn  Zn8       1.0  0.62492  0.75000  0.00010  1.0000
  Cu  Cu5       1.0  0.12499  0.37482  0.50005  1.0000
  Cu  Cu6       1.0  0.62503  0.12497  0.50008  1.0000
  Cu  Cu7       1.0  0.87501  0.62518  0.50005  1.0000
  Cu  Cu8       1.0  0.37497  0.87503  0.50008  1.0000
  Cu  Cu9       1.0  0.12499  0.62518  0.50024  1.0000
  Cu  Cu10      1.0  0.37497  0.12497  0.50012  1.0000
  Cu  Cu11      1.0  0.87501  0.37482  0.50024  1.0000
  Cu  Cu12      1.0  0.62503  0.87503  0.50012  1.0000
  Cu  Cu13      1.0  0.37500  0.50000  0.00010  1.0000
  Cu  Cu14      1.0  0.50000  0.37499  0.00010  1.0000
  Cu  Cu15      1.0  0.62500  0.50000  0.00010  1.0000
  Cu  Cu16      1.0  0.50000  0.62501  0.00010  1.0000
