data_image0
_chemical_formula_structural       Fe16C7NCNCNC3NCNC11NCNC7NHO2H2O2H2O2H2O2HNiC7NCNCNC3NCNC11NCNC7NHO2H2O2H2O2H2O2HNiC7NCNCNC3NCNC11NCNC7NHO2H2O2H2O2H2O2HNiC7NCNCNC3NCNC11NCNC7NHO2H2O2H2O2H2O2HNiC7NCNCNC3NCNC11NCNC7NHO2H2O2H2O2H2O2HNiC7NCNCNC3NCNC11NCNC7NHO2H2O2H2O2H2O2HNiC7NCNCNC3NCNC11NCNC7NHO2H2O2H2O2H2O2HNiC7NCNCNC3NCNC11NCNC7NHO2H2O2H2O2H2O2HNiC6HO2HO2C6HO2HO2C6HO2HO2C6HO2HO2C6HO2HO2C6HO2HO2C6HO2HO2C6HO2HO2
_chemical_formula_sum              "Fe16 C304 N64 H80 O96 Ni8"
_cell_length_a       37.8718
_cell_length_b       37.8739
_cell_length_c       27.3188
_cell_angle_alpha    89.9994
_cell_angle_beta     89.9995
_cell_angle_gamma    90.0065

_space_group_name_H-M_alt    "P 1"
_space_group_IT_number       1

loop_
  _space_group_symop_operation_xyz
  'x, y, z'

loop_
  _atom_site_type_symbol
  _atom_site_label
  _atom_site_symmetry_multiplicity
  _atom_site_fract_x
  _atom_site_fract_y
  _atom_site_fract_z
  _atom_site_occupancy
  Fe  Fe1       1.0  0.18333  0.32262  0.25006  1.0000
  Fe  Fe2       1.0  0.68340  0.18321  0.25001  1.0000
  Fe  Fe3       1.0  0.82271  0.68329  0.25008  1.0000
  Fe  Fe4       1.0  0.32266  0.82268  0.25006  1.0000
  Fe  Fe5       1.0  0.18338  0.68324  0.75005  1.0000
  Fe  Fe6       1.0  0.32265  0.18323  0.75016  1.0000
  Fe  Fe7       1.0  0.82277  0.32258  0.75020  1.0000
  Fe  Fe8       1.0  0.68334  0.82262  0.75007  1.0000
  Fe  Fe9       1.0  0.82269  0.68325  0.75008  1.0000
  Fe  Fe10      1.0  0.32272  0.82263  0.75007  1.0000
  Fe  Fe11      1.0  0.18338  0.32266  0.75006  1.0000
  Fe  Fe12      1.0  0.68332  0.18328  0.75008  1.0000
  Fe  Fe13      1.0  0.82263  0.32271  0.25020  1.0000
  Fe  Fe14      1.0  0.68334  0.82263  0.25009  1.0000
  Fe  Fe15      1.0  0.18332  0.68329  0.25005  1.0000
  Fe  Fe16      1.0  0.32278  0.18336  0.25023  1.0000
  C   C1        1.0  0.42464  0.18356  0.81076  1.0000
  C   C2        1.0  0.38509  0.18348  0.79642  1.0000
  C   C3        1.0  0.35604  0.18336  0.83671  1.0000
  C   C4        1.0  0.36640  0.18330  0.89153  1.0000
  C   C5        1.0  0.40583  0.18337  0.90395  1.0000
  C   C6        1.0  0.43361  0.18352  0.86543  1.0000
  C   C7        1.0  0.46950  0.18356  0.89108  1.0000
  N   N1        1.0  0.46452  0.18345  0.94676  1.0000
  C   C8        1.0  0.42436  0.18333  0.95369  1.0000
  N   N2        1.0  0.40461  0.18317  0.00010  1.0000
  C   C9        1.0  0.42437  0.18319  0.04658  1.0000
  N   N3        1.0  0.46454  0.18330  0.05346  1.0000
  C   C10       1.0  0.46954  0.18336  0.10915  1.0000
  C   C11       1.0  0.43368  0.18325  0.13483  1.0000
  C   C12       1.0  0.40587  0.18316  0.09634  1.0000
  N   N4        1.0  0.54151  0.18337  0.05343  1.0000
  C   C13       1.0  0.53654  0.18348  0.10912  1.0000
  N   N5        1.0  0.50305  0.18354  0.13653  1.0000
  C   C14       1.0  0.57243  0.18340  0.13477  1.0000
  C   C15       1.0  0.60020  0.18325  0.09624  1.0000
  C   C16       1.0  0.58167  0.18321  0.04651  1.0000
  C   C17       1.0  0.36645  0.18311  0.10882  1.0000
  C   C18       1.0  0.35613  0.18312  0.16365  1.0000
  C   C19       1.0  0.38520  0.18314  0.20389  1.0000
  C   C20       1.0  0.42474  0.18324  0.18950  1.0000
  C   C21       1.0  0.63963  0.18318  0.10865  1.0000
  C   C22       1.0  0.65000  0.18329  0.16346  1.0000
  C   C23       1.0  0.62096  0.18342  0.20375  1.0000
  C   C24       1.0  0.58141  0.18347  0.18943  1.0000
  N   N6        1.0  0.54148  0.18333  0.94674  1.0000
  C   C25       1.0  0.58165  0.18316  0.95364  1.0000
  N   N7        1.0  0.60142  0.18303  0.00010  1.0000
  C   C26       1.0  0.60016  0.18316  0.90390  1.0000
  C   C27       1.0  0.57237  0.18334  0.86538  1.0000
  C   C28       1.0  0.53649  0.18346  0.89106  1.0000
  C   C29       1.0  0.58134  0.18333  0.81072  1.0000
  C   C30       1.0  0.62089  0.18316  0.79638  1.0000
  C   C31       1.0  0.64994  0.18305  0.83665  1.0000
  C   C32       1.0  0.63959  0.18304  0.89147  1.0000
  N   N8        1.0  0.50299  0.18365  0.86369  1.0000
  H   H1        1.0  0.44456  0.18364  0.78403  1.0000
  O   O1        1.0  0.37611  0.18351  0.75049  1.0000
  O   O2        1.0  0.32291  0.18332  0.82426  1.0000
  H   H2        1.0  0.34713  0.18321  0.91916  1.0000
  H   H3        1.0  0.34715  0.18307  0.08122  1.0000
  O   O3        1.0  0.32301  0.18311  0.17614  1.0000
  O   O4        1.0  0.37625  0.18309  0.24983  1.0000
  H   H4        1.0  0.44467  0.18327  0.21621  1.0000
  H   H5        1.0  0.65891  0.18308  0.08102  1.0000
  O   O5        1.0  0.68313  0.18330  0.17589  1.0000
  O   O6        1.0  0.62995  0.18350  0.24967  1.0000
  H   H6        1.0  0.56150  0.18355  0.21617  1.0000
  H   H7        1.0  0.56142  0.18342  0.78399  1.0000
  O   O7        1.0  0.62987  0.18310  0.75045  1.0000
  O   O8        1.0  0.68307  0.18296  0.82420  1.0000
  H   H8        1.0  0.65887  0.18295  0.91910  1.0000
  Ni  Ni1       1.0  0.50301  0.18342  0.00010  1.0000
  C   C33       1.0  0.82237  0.42459  0.81077  1.0000
  C   C34       1.0  0.82246  0.38504  0.79642  1.0000
  C   C35       1.0  0.82258  0.35600  0.83670  1.0000
  C   C36       1.0  0.82263  0.36635  0.89153  1.0000
  C   C37       1.0  0.82256  0.40578  0.90396  1.0000
  C   C38       1.0  0.82240  0.43356  0.86543  1.0000
  C   C39       1.0  0.82236  0.46944  0.89109  1.0000
  N   N9        1.0  0.82247  0.46446  0.94677  1.0000
  C   C40       1.0  0.82260  0.42430  0.95369  1.0000
  N   N10       1.0  0.82276  0.40455  0.00010  1.0000
  C   C41       1.0  0.82273  0.42431  0.04658  1.0000
  N   N11       1.0  0.82261  0.46448  0.05347  1.0000
  C   C42       1.0  0.82255  0.46948  0.10915  1.0000
  C   C43       1.0  0.82266  0.43361  0.13484  1.0000
  C   C44       1.0  0.82276  0.40581  0.09634  1.0000
  N   N12       1.0  0.82253  0.54144  0.05345  1.0000
  C   C45       1.0  0.82242  0.53647  0.10914  1.0000
  N   N13       1.0  0.82237  0.50298  0.13654  1.0000
  C   C46       1.0  0.82249  0.57235  0.13479  1.0000
  C   C47       1.0  0.82264  0.60013  0.09626  1.0000
  C   C48       1.0  0.82269  0.58160  0.04652  1.0000
  C   C49       1.0  0.82282  0.36639  0.10881  1.0000
  C   C50       1.0  0.82281  0.35607  0.16365  1.0000
  C   C51       1.0  0.82277  0.38514  0.20389  1.0000
  C   C52       1.0  0.82267  0.42467  0.18950  1.0000
  C   C53       1.0  0.82271  0.63956  0.10867  1.0000
  C   C54       1.0  0.82259  0.64992  0.16348  1.0000
  C   C55       1.0  0.82246  0.62088  0.20377  1.0000
  C   C56       1.0  0.82242  0.58134  0.18944  1.0000
  N   N14       1.0  0.82258  0.54142  0.94675  1.0000
  C   C57       1.0  0.82275  0.58159  0.95365  1.0000
  N   N15       1.0  0.82287  0.60135  0.00010  1.0000
  C   C58       1.0  0.82274  0.60010  0.90392  1.0000
  C   C59       1.0  0.82257  0.57231  0.86540  1.0000
  C   C60       1.0  0.82245  0.53643  0.89107  1.0000
  C   C61       1.0  0.82258  0.58128  0.81074  1.0000
  C   C62       1.0  0.82275  0.62083  0.79640  1.0000
  C   C63       1.0  0.82285  0.64988  0.83668  1.0000
  C   C64       1.0  0.82286  0.63952  0.89149  1.0000
  N   N16       1.0  0.82227  0.50293  0.86370  1.0000
  H   H9        1.0  0.82229  0.44451  0.78403  1.0000
  O   O9        1.0  0.82243  0.37606  0.75049  1.0000
  O   O10       1.0  0.82263  0.32287  0.82425  1.0000
  H   H10       1.0  0.82273  0.34708  0.91915  1.0000
  H   H11       1.0  0.82286  0.34709  0.08122  1.0000
  O   O11       1.0  0.82282  0.32295  0.17613  1.0000
  O   O12       1.0  0.82283  0.37618  0.24983  1.0000
  H   H12       1.0  0.82263  0.44460  0.21622  1.0000
  H   H13       1.0  0.82280  0.65883  0.08105  1.0000
  O   O13       1.0  0.82258  0.68305  0.17592  1.0000
  O   O14       1.0  0.82238  0.62987  0.24969  1.0000
  H   H14       1.0  0.82234  0.56143  0.21619  1.0000
  H   H15       1.0  0.82249  0.56136  0.78401  1.0000
  O   O15       1.0  0.82281  0.62981  0.75047  1.0000
  O   O16       1.0  0.82293  0.68301  0.82423  1.0000
  H   H16       1.0  0.82295  0.65880  0.91912  1.0000
  Ni  Ni2       1.0  0.82249  0.50295  0.00010  1.0000
  C   C65       1.0  0.42467  0.82236  0.18948  1.0000
  C   C66       1.0  0.38512  0.82245  0.20384  1.0000
  C   C67       1.0  0.35607  0.82258  0.16356  1.0000
  C   C68       1.0  0.36642  0.82263  0.10874  1.0000
  C   C69       1.0  0.40585  0.82255  0.09630  1.0000
  C   C70       1.0  0.43364  0.82240  0.13482  1.0000
  C   C71       1.0  0.46951  0.82235  0.10915  1.0000
  N   N17       1.0  0.46453  0.82247  0.05347  1.0000
  C   C72       1.0  0.42436  0.82259  0.04655  1.0000
  N   N18       1.0  0.40461  0.82276  0.00010  1.0000
  C   C73       1.0  0.42436  0.82273  0.95367  1.0000
  N   N19       1.0  0.46453  0.82261  0.94677  1.0000
  C   C74       1.0  0.46952  0.82255  0.89108  1.0000
  C   C75       1.0  0.43365  0.82267  0.86541  1.0000
  C   C76       1.0  0.40585  0.82277  0.90392  1.0000
  N   N20       1.0  0.54150  0.82252  0.94677  1.0000
  C   C77       1.0  0.53652  0.82242  0.89108  1.0000
  N   N21       1.0  0.50302  0.82237  0.86369  1.0000
  C   C78       1.0  0.57240  0.82248  0.86542  1.0000
  C   C79       1.0  0.60018  0.82263  0.90394  1.0000
  C   C80       1.0  0.58166  0.82268  0.95368  1.0000
  C   C81       1.0  0.36643  0.82283  0.89145  1.0000
  C   C82       1.0  0.35610  0.82282  0.83662  1.0000
  C   C83       1.0  0.38516  0.82279  0.79637  1.0000
  C   C84       1.0  0.42470  0.82268  0.81074  1.0000
  C   C85       1.0  0.63961  0.82269  0.89152  1.0000
  C   C86       1.0  0.64997  0.82258  0.83670  1.0000
  C   C87       1.0  0.62092  0.82245  0.79643  1.0000
  C   C88       1.0  0.58138  0.82241  0.81076  1.0000
  N   N22       1.0  0.54149  0.82257  0.05346  1.0000
  C   C89       1.0  0.58166  0.82273  0.04655  1.0000
  N   N23       1.0  0.60142  0.82285  0.00010  1.0000
  C   C90       1.0  0.60018  0.82272  0.09628  1.0000
  C   C91       1.0  0.57239  0.82255  0.13481  1.0000
  C   C92       1.0  0.53651  0.82244  0.10914  1.0000
  C   C93       1.0  0.58137  0.82256  0.18947  1.0000
  C   C94       1.0  0.62092  0.82272  0.20380  1.0000
  C   C95       1.0  0.64997  0.82282  0.16351  1.0000
  C   C96       1.0  0.63961  0.82283  0.10869  1.0000
  N   N24       1.0  0.50301  0.82226  0.13653  1.0000
  H   H17       1.0  0.44459  0.82228  0.21621  1.0000
  O   O17       1.0  0.37615  0.82243  0.24977  1.0000
  O   O18       1.0  0.32294  0.82263  0.17602  1.0000
  H   H18       1.0  0.34714  0.82273  0.08112  1.0000
  H   H19       1.0  0.34714  0.82287  0.91905  1.0000
  O   O19       1.0  0.32297  0.82284  0.82415  1.0000
  O   O20       1.0  0.37620  0.82285  0.75043  1.0000
  H   H20       1.0  0.44463  0.82264  0.78403  1.0000
  H   H21       1.0  0.65889  0.82279  0.91914  1.0000
  O   O21       1.0  0.68310  0.82256  0.82426  1.0000
  O   O22       1.0  0.62991  0.82238  0.75050  1.0000
  H   H22       1.0  0.56146  0.82234  0.78402  1.0000
  H   H23       1.0  0.56146  0.82247  0.21620  1.0000
  O   O23       1.0  0.62991  0.82278  0.24972  1.0000
  O   O24       1.0  0.68310  0.82290  0.17595  1.0000
  H   H24       1.0  0.65888  0.82292  0.08107  1.0000
  Ni  Ni3       1.0  0.50301  0.82248  0.00010  1.0000
  C   C97       1.0  0.18302  0.58129  0.18948  1.0000
  C   C98       1.0  0.18311  0.62083  0.20384  1.0000
  C   C99       1.0  0.18324  0.64989  0.16357  1.0000
  C   C100      1.0  0.18331  0.63954  0.10874  1.0000
  C   C101      1.0  0.18323  0.60011  0.09630  1.0000
  C   C102      1.0  0.18307  0.57233  0.13482  1.0000
  C   C103      1.0  0.18303  0.53645  0.10915  1.0000
  N   N25       1.0  0.18316  0.54144  0.05347  1.0000
  C   C104      1.0  0.18328  0.58161  0.04656  1.0000
  N   N26       1.0  0.18345  0.60136  0.00010  1.0000
  C   C105      1.0  0.18344  0.58161  0.95367  1.0000
  N   N27       1.0  0.18332  0.54144  0.94677  1.0000
  C   C106      1.0  0.18327  0.53645  0.89108  1.0000
  C   C107      1.0  0.18339  0.57232  0.86541  1.0000
  C   C108      1.0  0.18348  0.60012  0.90392  1.0000
  N   N28       1.0  0.18324  0.46448  0.94677  1.0000
  C   C109      1.0  0.18314  0.46946  0.89108  1.0000
  N   N29       1.0  0.18310  0.50295  0.86369  1.0000
  C   C110      1.0  0.18322  0.43358  0.86542  1.0000
  C   C111      1.0  0.18336  0.40580  0.90394  1.0000
  C   C112      1.0  0.18340  0.42431  0.95368  1.0000
  C   C113      1.0  0.18354  0.63954  0.89145  1.0000
  C   C114      1.0  0.18354  0.64987  0.83663  1.0000
  C   C115      1.0  0.18352  0.62081  0.79637  1.0000
  C   C116      1.0  0.18341  0.58127  0.81075  1.0000
  C   C117      1.0  0.18343  0.36637  0.89151  1.0000
  C   C118      1.0  0.18333  0.35602  0.83670  1.0000
  C   C119      1.0  0.18321  0.38506  0.79642  1.0000
  C   C120      1.0  0.18316  0.42460  0.81076  1.0000
  N   N30       1.0  0.18327  0.46448  0.05346  1.0000
  C   C121      1.0  0.18343  0.42432  0.04655  1.0000
  N   N31       1.0  0.18356  0.40456  0.00010  1.0000
  C   C122      1.0  0.18342  0.40580  0.09628  1.0000
  C   C123      1.0  0.18324  0.43358  0.13481  1.0000
  C   C124      1.0  0.18313  0.46946  0.10914  1.0000
  C   C125      1.0  0.18323  0.42460  0.18946  1.0000
  C   C126      1.0  0.18340  0.38505  0.20379  1.0000
  C   C127      1.0  0.18351  0.35601  0.16350  1.0000
  C   C128      1.0  0.18353  0.36637  0.10869  1.0000
  N   N32       1.0  0.18294  0.50296  0.13653  1.0000
  H   H25       1.0  0.18294  0.56137  0.21621  1.0000
  O   O25       1.0  0.18307  0.62981  0.24977  1.0000
  O   O26       1.0  0.18328  0.68301  0.17603  1.0000
  H   H26       1.0  0.18340  0.65882  0.08112  1.0000
  H   H27       1.0  0.18357  0.65883  0.91906  1.0000
  O   O27       1.0  0.18355  0.68299  0.82415  1.0000
  O   O28       1.0  0.18358  0.62977  0.75043  1.0000
  H   H28       1.0  0.18338  0.56134  0.78403  1.0000
  H   H29       1.0  0.18352  0.34709  0.91913  1.0000
  O   O29       1.0  0.18332  0.32289  0.82426  1.0000
  O   O30       1.0  0.18314  0.37608  0.75050  1.0000
  H   H30       1.0  0.18309  0.44452  0.78402  1.0000
  H   H31       1.0  0.18314  0.44451  0.21620  1.0000
  O   O31       1.0  0.18345  0.37606  0.24972  1.0000
  O   O32       1.0  0.18359  0.32287  0.17594  1.0000
  H   H32       1.0  0.18363  0.34710  0.08106  1.0000
  Ni  Ni4       1.0  0.18319  0.50296  0.00010  1.0000
  C   C129      1.0  0.08137  0.68354  0.68946  1.0000
  C   C130      1.0  0.12092  0.68345  0.70381  1.0000
  C   C131      1.0  0.14997  0.68333  0.66354  1.0000
  C   C132      1.0  0.13962  0.68327  0.60871  1.0000
  C   C133      1.0  0.10019  0.68335  0.59627  1.0000
  C   C134      1.0  0.07241  0.68350  0.63479  1.0000
  C   C135      1.0  0.03653  0.68355  0.60912  1.0000
  N   N33       1.0  0.04152  0.68343  0.55344  1.0000
  C   C136      1.0  0.08168  0.68331  0.54653  1.0000
  N   N34       1.0  0.10144  0.68314  0.50009  1.0000
  C   C137      1.0  0.08168  0.68317  0.45364  1.0000
  N   N35       1.0  0.04151  0.68329  0.44674  1.0000
  C   C138      1.0  0.03652  0.68335  0.39106  1.0000
  C   C139      1.0  0.07240  0.68324  0.36538  1.0000
  C   C140      1.0  0.10019  0.68314  0.40389  1.0000
  N   N36       1.0  0.96455  0.68337  0.44674  1.0000
  C   C141      1.0  0.96953  0.68348  0.39106  1.0000
  N   N37       1.0  0.00302  0.68353  0.36367  1.0000
  C   C142      1.0  0.93364  0.68341  0.36540  1.0000
  C   C143      1.0  0.90586  0.68326  0.40392  1.0000
  C   C144      1.0  0.92438  0.68321  0.45366  1.0000
  C   C145      1.0  0.13962  0.68308  0.39142  1.0000
  C   C146      1.0  0.14995  0.68309  0.33659  1.0000
  C   C147      1.0  0.12088  0.68312  0.29634  1.0000
  C   C148      1.0  0.08134  0.68322  0.31072  1.0000
  C   C149      1.0  0.86643  0.68320  0.39149  1.0000
  C   C150      1.0  0.85608  0.68331  0.33668  1.0000
  C   C151      1.0  0.88512  0.68344  0.29640  1.0000
  C   C152      1.0  0.92467  0.68348  0.31074  1.0000
  N   N38       1.0  0.96455  0.68332  0.55344  1.0000
  C   C153      1.0  0.92439  0.68316  0.54653  1.0000
  N   N39       1.0  0.90463  0.68304  0.50009  1.0000
  C   C154      1.0  0.90587  0.68317  0.59626  1.0000
  C   C155      1.0  0.93365  0.68334  0.63478  1.0000
  C   C156      1.0  0.96953  0.68345  0.60912  1.0000
  C   C157      1.0  0.92467  0.68333  0.68944  1.0000
  C   C158      1.0  0.88512  0.68317  0.70377  1.0000
  C   C159      1.0  0.85607  0.68306  0.66349  1.0000
  C   C160      1.0  0.86644  0.68305  0.60867  1.0000
  N   N40       1.0  0.00303  0.68363  0.63651  1.0000
  H   H33       1.0  0.06145  0.68362  0.71618  1.0000
  O   O33       1.0  0.12990  0.68347  0.74974  1.0000
  O   O34       1.0  0.18310  0.68327  0.67600  1.0000
  H   H34       1.0  0.15890  0.68318  0.58109  1.0000
  H   H35       1.0  0.15891  0.68304  0.41902  1.0000
  O   O35       1.0  0.18307  0.68308  0.32412  1.0000
  O   O36       1.0  0.12984  0.68306  0.25040  1.0000
  H   H36       1.0  0.06141  0.68326  0.28400  1.0000
  H   H37       1.0  0.84715  0.68310  0.41911  1.0000
  O   O37       1.0  0.82295  0.68332  0.32424  1.0000
  O   O38       1.0  0.87614  0.68352  0.25048  1.0000
  H   H38       1.0  0.94458  0.68356  0.28400  1.0000
  H   H39       1.0  0.94459  0.68342  0.71618  1.0000
  O   O39       1.0  0.87613  0.68310  0.74970  1.0000
  O   O40       1.0  0.82294  0.68298  0.67593  1.0000
  H   H40       1.0  0.84717  0.68296  0.58104  1.0000
  Ni  Ni5       1.0  0.00303  0.68341  0.50010  1.0000
  C   C161      1.0  0.32235  0.92467  0.31071  1.0000
  C   C162      1.0  0.32244  0.88513  0.29633  1.0000
  C   C163      1.0  0.32256  0.85606  0.33659  1.0000
  C   C164      1.0  0.32262  0.86640  0.39143  1.0000
  C   C165      1.0  0.32254  0.90582  0.40388  1.0000
  C   C166      1.0  0.32239  0.93362  0.36537  1.0000
  C   C167      1.0  0.32235  0.96949  0.39106  1.0000
  N   N41       1.0  0.32246  0.96449  0.44674  1.0000
  C   C168      1.0  0.32258  0.92432  0.45363  1.0000
  N   N42       1.0  0.32275  0.90456  0.50007  1.0000
  C   C169      1.0  0.32272  0.92430  0.54652  1.0000
  N   N43       1.0  0.32260  0.96447  0.55344  1.0000
  C   C170      1.0  0.32254  0.96945  0.60912  1.0000
  C   C171      1.0  0.32265  0.93357  0.63478  1.0000
  C   C172      1.0  0.32275  0.90579  0.59626  1.0000
  N   N44       1.0  0.32253  0.04143  0.55347  1.0000
  C   C173      1.0  0.32242  0.03644  0.60915  1.0000
  N   N45       1.0  0.32237  0.00294  0.63653  1.0000
  C   C174      1.0  0.32249  0.07231  0.63483  1.0000
  C   C175      1.0  0.32265  0.10010  0.59632  1.0000
  C   C176      1.0  0.32269  0.08160  0.54657  1.0000
  C   C177      1.0  0.32280  0.86636  0.60871  1.0000
  C   C178      1.0  0.32280  0.85602  0.66354  1.0000
  C   C179      1.0  0.32276  0.88507  0.70380  1.0000
  C   C180      1.0  0.32267  0.92461  0.68944  1.0000
  C   C181      1.0  0.32271  0.13953  0.60876  1.0000
  C   C182      1.0  0.32260  0.14987  0.66358  1.0000
  C   C183      1.0  0.32247  0.12082  0.70384  1.0000
  C   C184      1.0  0.32242  0.08128  0.68949  1.0000
  N   N46       1.0  0.32258  0.04145  0.44678  1.0000
  C   C185      1.0  0.32274  0.08161  0.45370  1.0000
  N   N47       1.0  0.32287  0.10136  0.50014  1.0000
  C   C186      1.0  0.32274  0.10014  0.40398  1.0000
  C   C187      1.0  0.32257  0.07237  0.36544  1.0000
  C   C188      1.0  0.32245  0.03648  0.39109  1.0000
  C   C189      1.0  0.32257  0.08136  0.31079  1.0000
  C   C190      1.0  0.32274  0.12091  0.29647  1.0000
  C   C191      1.0  0.32285  0.14995  0.33677  1.0000
  C   C192      1.0  0.32286  0.13957  0.39158  1.0000
  N   N48       1.0  0.32226  0.00299  0.36369  1.0000
  H   H41       1.0  0.32227  0.94460  0.28399  1.0000
  O   O41       1.0  0.32241  0.87616  0.25040  1.0000
  O   O42       1.0  0.32260  0.82294  0.32412  1.0000
  H   H42       1.0  0.32271  0.84711  0.41904  1.0000
  H   H43       1.0  0.32284  0.84707  0.58110  1.0000
  O   O43       1.0  0.32280  0.82289  0.67600  1.0000
  O   O44       1.0  0.32282  0.87610  0.74974  1.0000
  H   H44       1.0  0.32263  0.94453  0.71617  1.0000
  H   H45       1.0  0.32281  0.15881  0.58115  1.0000
  O   O45       1.0  0.32259  0.18300  0.67604  1.0000
  O   O46       1.0  0.32240  0.12979  0.74978  1.0000
  H   H46       1.0  0.32234  0.06136  0.71622  1.0000
  H   H47       1.0  0.32248  0.06145  0.28404  1.0000
  O   O47       1.0  0.32280  0.12991  0.25055  1.0000
  O   O48       1.0  0.32294  0.18308  0.32435  1.0000
  H   H48       1.0  0.32295  0.15884  0.41922  1.0000
  Ni  Ni6       1.0  0.32248  0.00296  0.50010  1.0000
  C   C193      1.0  0.92465  0.32303  0.31077  1.0000
  C   C194      1.0  0.88510  0.32295  0.29642  1.0000
  C   C195      1.0  0.85605  0.32282  0.33671  1.0000
  C   C196      1.0  0.86641  0.32275  0.39153  1.0000
  C   C197      1.0  0.90584  0.32282  0.40396  1.0000
  C   C198      1.0  0.93362  0.32298  0.36543  1.0000
  C   C199      1.0  0.96950  0.32302  0.39109  1.0000
  N   N49       1.0  0.96453  0.32290  0.44677  1.0000
  C   C200      1.0  0.92436  0.32277  0.45369  1.0000
  N   N50       1.0  0.90461  0.32260  0.50014  1.0000
  C   C201      1.0  0.92437  0.32262  0.54658  1.0000
  N   N51       1.0  0.96455  0.32274  0.55347  1.0000
  C   C202      1.0  0.96955  0.32279  0.60915  1.0000
  C   C203      1.0  0.93368  0.32267  0.63484  1.0000
  C   C204      1.0  0.90588  0.32258  0.59634  1.0000
  N   N52       1.0  0.04151  0.32281  0.55344  1.0000
  C   C205      1.0  0.03654  0.32291  0.60913  1.0000
  N   N53       1.0  0.00305  0.32296  0.63653  1.0000
  C   C206      1.0  0.07243  0.32284  0.63478  1.0000
  C   C207      1.0  0.10020  0.32269  0.59625  1.0000
  C   C208      1.0  0.08168  0.32266  0.54652  1.0000
  C   C209      1.0  0.86645  0.32252  0.60882  1.0000
  C   C210      1.0  0.85613  0.32252  0.66365  1.0000
  C   C211      1.0  0.88520  0.32255  0.70389  1.0000
  C   C212      1.0  0.92474  0.32265  0.68950  1.0000
  C   C213      1.0  0.13963  0.32263  0.60866  1.0000
  C   C214      1.0  0.15000  0.32273  0.66347  1.0000
  C   C215      1.0  0.12096  0.32285  0.70376  1.0000
  C   C216      1.0  0.08141  0.32290  0.68944  1.0000
  N   N54       1.0  0.04149  0.32279  0.44675  1.0000
  C   C217      1.0  0.08166  0.32262  0.45365  1.0000
  N   N55       1.0  0.10142  0.32249  0.50007  1.0000
  C   C218      1.0  0.10017  0.32263  0.40391  1.0000
  C   C219      1.0  0.07238  0.32281  0.36539  1.0000
  C   C220      1.0  0.03650  0.32293  0.39107  1.0000
  C   C221      1.0  0.08135  0.32282  0.31073  1.0000
  C   C222      1.0  0.12090  0.32265  0.29639  1.0000
  C   C223      1.0  0.14995  0.32254  0.33667  1.0000
  C   C224      1.0  0.13960  0.32252  0.39149  1.0000
  N   N56       1.0  0.00300  0.32311  0.36369  1.0000
  H   H49       1.0  0.94457  0.32312  0.28403  1.0000
  O   O49       1.0  0.87612  0.32298  0.25050  1.0000
  O   O50       1.0  0.82292  0.32277  0.32426  1.0000
  H   H50       1.0  0.84713  0.32265  0.41915  1.0000
  H   H51       1.0  0.84715  0.32249  0.58122  1.0000
  O   O51       1.0  0.82301  0.32251  0.67613  1.0000
  O   O52       1.0  0.87625  0.32248  0.74983  1.0000
  H   H52       1.0  0.94467  0.32268  0.71621  1.0000
  H   H53       1.0  0.15891  0.32253  0.58104  1.0000
  O   O53       1.0  0.18313  0.32274  0.67590  1.0000
  O   O54       1.0  0.12995  0.32292  0.74968  1.0000
  H   H54       1.0  0.06150  0.32297  0.71618  1.0000
  H   H55       1.0  0.06143  0.32291  0.28400  1.0000
  O   O55       1.0  0.12988  0.32260  0.25046  1.0000
  O   O56       1.0  0.18308  0.32246  0.32422  1.0000
  H   H56       1.0  0.15887  0.32243  0.41911  1.0000
  Ni  Ni7       1.0  0.00302  0.32287  0.50010  1.0000
  C   C225      1.0  0.68301  0.08129  0.68945  1.0000
  C   C226      1.0  0.68310  0.12083  0.70381  1.0000
  C   C227      1.0  0.68323  0.14989  0.66353  1.0000
  C   C228      1.0  0.68330  0.13954  0.60870  1.0000
  C   C229      1.0  0.68322  0.10011  0.59627  1.0000
  C   C230      1.0  0.68306  0.07233  0.63479  1.0000
  C   C231      1.0  0.68301  0.03645  0.60912  1.0000
  N   N57       1.0  0.68314  0.04143  0.55344  1.0000
  C   C232      1.0  0.68327  0.08160  0.54652  1.0000
  N   N58       1.0  0.68344  0.10135  0.50008  1.0000
  C   C233      1.0  0.68342  0.08160  0.45364  1.0000
  N   N59       1.0  0.68330  0.04143  0.44674  1.0000
  C   C234      1.0  0.68325  0.03644  0.39105  1.0000
  C   C235      1.0  0.68337  0.07231  0.36538  1.0000
  C   C236      1.0  0.68346  0.10010  0.40388  1.0000
  N   N60       1.0  0.68322  0.96447  0.44675  1.0000
  C   C237      1.0  0.68312  0.96944  0.39106  1.0000
  N   N61       1.0  0.68307  0.00294  0.36366  1.0000
  C   C238      1.0  0.68319  0.93356  0.36540  1.0000
  C   C239      1.0  0.68333  0.90578  0.40392  1.0000
  C   C240      1.0  0.68337  0.92430  0.45366  1.0000
  C   C241      1.0  0.68352  0.13952  0.39142  1.0000
  C   C242      1.0  0.68352  0.14985  0.33659  1.0000
  C   C243      1.0  0.68350  0.12079  0.29633  1.0000
  C   C244      1.0  0.68339  0.08125  0.31071  1.0000
  C   C245      1.0  0.68339  0.86636  0.39150  1.0000
  C   C246      1.0  0.68329  0.85600  0.33669  1.0000
  C   C247      1.0  0.68317  0.88504  0.29641  1.0000
  C   C248      1.0  0.68313  0.92459  0.31074  1.0000
  N   N62       1.0  0.68324  0.96447  0.55344  1.0000
  C   C249      1.0  0.68341  0.92431  0.54653  1.0000
  N   N63       1.0  0.68353  0.90455  0.50010  1.0000
  C   C250      1.0  0.68339  0.90579  0.59626  1.0000
  C   C251      1.0  0.68321  0.93357  0.63479  1.0000
  C   C252      1.0  0.68311  0.96946  0.60912  1.0000
  C   C253      1.0  0.68321  0.92460  0.68944  1.0000
  C   C254      1.0  0.68337  0.88505  0.70378  1.0000
  C   C255      1.0  0.68348  0.85600  0.66349  1.0000
  C   C256      1.0  0.68350  0.86637  0.60867  1.0000
  N   N64       1.0  0.68292  0.00295  0.63650  1.0000
  H   H57       1.0  0.68292  0.06137  0.71618  1.0000
  O   O57       1.0  0.68307  0.12981  0.74973  1.0000
  O   O58       1.0  0.68328  0.18301  0.67599  1.0000
  H   H58       1.0  0.68339  0.15882  0.58108  1.0000
  H   H59       1.0  0.68356  0.15882  0.41902  1.0000
  O   O59       1.0  0.68354  0.18298  0.32411  1.0000
  O   O60       1.0  0.68356  0.12975  0.25040  1.0000
  H   H60       1.0  0.68336  0.06132  0.28400  1.0000
  H   H61       1.0  0.68349  0.84708  0.41912  1.0000
  O   O61       1.0  0.68328  0.82287  0.32424  1.0000
  O   O62       1.0  0.68310  0.87606  0.25048  1.0000
  H   H62       1.0  0.68305  0.94450  0.28400  1.0000
  H   H63       1.0  0.68312  0.94451  0.71618  1.0000
  O   O63       1.0  0.68343  0.87606  0.74970  1.0000
  O   O64       1.0  0.68356  0.82287  0.67593  1.0000
  H   H64       1.0  0.68359  0.84709  0.58105  1.0000
  Ni  Ni8       1.0  0.68316  0.00295  0.50009  1.0000
  C   C257      1.0  0.27917  0.27916  0.25014  1.0000
  C   C258      1.0  0.28877  0.24347  0.25019  1.0000
  C   C259      1.0  0.26266  0.21730  0.25020  1.0000
  C   C260      1.0  0.22694  0.22683  0.25016  1.0000
  C   C261      1.0  0.21734  0.26252  0.25012  1.0000
  C   C262      1.0  0.24345  0.28869  0.25011  1.0000
  H   H65       1.0  0.29876  0.29879  0.25014  1.0000
  O   O65       1.0  0.32092  0.23489  0.25022  1.0000
  O   O66       1.0  0.27131  0.18518  0.25023  1.0000
  H   H66       1.0  0.20736  0.20720  0.25017  1.0000
  O   O67       1.0  0.18520  0.27110  0.25009  1.0000
  O   O68       1.0  0.23481  0.32081  0.25007  1.0000
  C   C263      1.0  0.72684  0.27906  0.25020  1.0000
  C   C264      1.0  0.71732  0.24334  0.25011  1.0000
  C   C265      1.0  0.74350  0.21724  0.25002  1.0000
  C   C266      1.0  0.77919  0.22686  0.25001  1.0000
  C   C267      1.0  0.78871  0.26258  0.25010  1.0000
  C   C268      1.0  0.76254  0.28868  0.25020  1.0000
  H   H67       1.0  0.70721  0.29864  0.25027  1.0000
  O   O69       1.0  0.68520  0.23469  0.25012  1.0000
  O   O70       1.0  0.73493  0.18510  0.24994  1.0000
  H   H68       1.0  0.79882  0.20729  0.24995  1.0000
  O   O71       1.0  0.82084  0.27124  0.25010  1.0000
  O   O72       1.0  0.77110  0.32083  0.25028  1.0000
  C   C269      1.0  0.77916  0.77910  0.25009  1.0000
  C   C270      1.0  0.74346  0.78866  0.25009  1.0000
  C   C271      1.0  0.71732  0.76252  0.25009  1.0000
  C   C272      1.0  0.72689  0.72682  0.25008  1.0000
  C   C273      1.0  0.76260  0.71726  0.25008  1.0000
  C   C274      1.0  0.78874  0.74340  0.25008  1.0000
  H   H69       1.0  0.79877  0.79871  0.25009  1.0000
  O   O73       1.0  0.73484  0.82080  0.25010  1.0000
  O   O74       1.0  0.68518  0.77112  0.25009  1.0000
  H   H70       1.0  0.70729  0.70721  0.25008  1.0000
  O   O75       1.0  0.77121  0.68512  0.25008  1.0000
  O   O76       1.0  0.82087  0.73480  0.25008  1.0000
  C   C275      1.0  0.22684  0.77912  0.25006  1.0000
  C   C276      1.0  0.21728  0.74341  0.25005  1.0000
  C   C277      1.0  0.24343  0.71728  0.25005  1.0000
  C   C278      1.0  0.27913  0.72686  0.25005  1.0000
  C   C279      1.0  0.28869  0.76257  0.25005  1.0000
  C   C280      1.0  0.26255  0.78870  0.25006  1.0000
  H   H71       1.0  0.20724  0.79872  0.25006  1.0000
  O   O77       1.0  0.18515  0.73479  0.25006  1.0000
  O   O78       1.0  0.23482  0.68515  0.25005  1.0000
  H   H72       1.0  0.29874  0.70726  0.25004  1.0000
  O   O79       1.0  0.32083  0.77119  0.25005  1.0000
  O   O80       1.0  0.27116  0.82084  0.25006  1.0000
  C   C281      1.0  0.22691  0.77906  0.75006  1.0000
  C   C282      1.0  0.21735  0.74335  0.75006  1.0000
  C   C283      1.0  0.24349  0.71722  0.75005  1.0000
  C   C284      1.0  0.27920  0.72680  0.75005  1.0000
  C   C285      1.0  0.28876  0.76251  0.75006  1.0000
  C   C286      1.0  0.26261  0.78864  0.75006  1.0000
  H   H73       1.0  0.20730  0.79866  0.75007  1.0000
  O   O81       1.0  0.18521  0.73473  0.75006  1.0000
  O   O82       1.0  0.23488  0.68509  0.75005  1.0000
  H   H74       1.0  0.29880  0.70720  0.75005  1.0000
  O   O83       1.0  0.32089  0.77113  0.75006  1.0000
  O   O84       1.0  0.27122  0.82078  0.75007  1.0000
  C   C287      1.0  0.22685  0.22683  0.75011  1.0000
  C   C288      1.0  0.26255  0.21723  0.75013  1.0000
  C   C289      1.0  0.28871  0.24335  0.75014  1.0000
  C   C290      1.0  0.27918  0.27906  0.75012  1.0000
  C   C291      1.0  0.24348  0.28866  0.75009  1.0000
  C   C292      1.0  0.21731  0.26254  0.75009  1.0000
  H   H75       1.0  0.20723  0.20724  0.75011  1.0000
  O   O85       1.0  0.27113  0.18509  0.75015  1.0000
  O   O86       1.0  0.32084  0.23471  0.75016  1.0000
  H   H76       1.0  0.29880  0.29865  0.75012  1.0000
  O   O87       1.0  0.23489  0.32080  0.75007  1.0000
  O   O88       1.0  0.18519  0.27117  0.75006  1.0000
  C   C293      1.0  0.72693  0.27908  0.75014  1.0000
  C   C294      1.0  0.76265  0.28863  0.75017  1.0000
  C   C295      1.0  0.78876  0.26247  0.75017  1.0000
  C   C296      1.0  0.77917  0.22677  0.75014  1.0000
  C   C297      1.0  0.74345  0.21723  0.75011  1.0000
  C   C298      1.0  0.71733  0.24339  0.75011  1.0000
  H   H77       1.0  0.70734  0.29870  0.75015  1.0000
  O   O89       1.0  0.77128  0.32075  0.75020  1.0000
  O   O90       1.0  0.82091  0.27106  0.75019  1.0000
  H   H78       1.0  0.79875  0.20715  0.75013  1.0000
  O   O91       1.0  0.73481  0.18510  0.75008  1.0000
  O   O92       1.0  0.68519  0.23480  0.75009  1.0000
  C   C299      1.0  0.77915  0.77907  0.75007  1.0000
  C   C300      1.0  0.78872  0.74337  0.75007  1.0000
  C   C301      1.0  0.76257  0.71723  0.75008  1.0000
  C   C302      1.0  0.72687  0.72680  0.75008  1.0000
  C   C303      1.0  0.71730  0.76250  0.75008  1.0000
  C   C304      1.0  0.74345  0.78864  0.75007  1.0000
  H   H79       1.0  0.79876  0.79868  0.75006  1.0000
  O   O93       1.0  0.82085  0.73476  0.75007  1.0000
  O   O94       1.0  0.77118  0.68509  0.75008  1.0000
  H   H80       1.0  0.70726  0.70719  0.75009  1.0000
  O   O95       1.0  0.68517  0.77111  0.75008  1.0000
  O   O96       1.0  0.73484  0.82077  0.75007  1.0000
