data_image0
_chemical_formula_structural       Fe16C7NCNCNC3NCNC11NCNC7NHO2H2O2H2O2H2O2HNiC7NCNCNC3NCNC11NCNC7NHO2H2O2H2O2H2O2HNiC7NCNCNC3NCNC11NCNC7NHO2H2O2H2O2H2O2HNiC7NCNCNC3NCNC11NCNC7NHO2H2O2H2O2H2O2HNiC7NCNCNC3NCNC11NCNC7NHO2H2O2H2O2H2O2HNiC7NCNCNC3NCNC11NCNC7NHO2H2O2H2O2H2O2HNiC7NCNCNC3NCNC11NCNC7NHO2H2O2H2O2H2O2HNiC7NCNCNC3NCNC11NCNC7NHO2H2O2H2O2H2O2HNiC6HO2HO2C6HO2HO2C6HO2HO2C6HO2HO2C6HO2HO2C6HO2HO2C6HO2HO2C6HO2HO2
_chemical_formula_sum              "Fe16 C304 N64 H80 O96 Ni8"
_cell_length_a       37.8741
_cell_length_b       37.8765
_cell_length_c       27.3164
_cell_angle_alpha    89.9994
_cell_angle_beta     90.0011
_cell_angle_gamma    89.999

_space_group_name_H-M_alt    "P 1"
_space_group_IT_number       1

loop_
  _space_group_symop_operation_xyz
  'x, y, z'

loop_
  _atom_site_type_symbol
  _atom_site_label
  _atom_site_symmetry_multiplicity
  _atom_site_fract_x
  _atom_site_fract_y
  _atom_site_fract_z
  _atom_site_occupancy
  Fe  Fe1       1.0  0.18143  0.32169  0.25063  1.0000
  Fe  Fe2       1.0  0.68144  0.18240  0.25071  1.0000
  Fe  Fe3       1.0  0.82083  0.68240  0.25063  1.0000
  Fe  Fe4       1.0  0.32076  0.82174  0.25063  1.0000
  Fe  Fe5       1.0  0.18149  0.68232  0.75062  1.0000
  Fe  Fe6       1.0  0.32086  0.18240  0.75060  1.0000
  Fe  Fe7       1.0  0.82078  0.32175  0.75065  1.0000
  Fe  Fe8       1.0  0.68147  0.82176  0.75070  1.0000
  Fe  Fe9       1.0  0.82076  0.68234  0.75063  1.0000
  Fe  Fe10      1.0  0.32086  0.82166  0.75059  1.0000
  Fe  Fe11      1.0  0.18150  0.32175  0.75063  1.0000
  Fe  Fe12      1.0  0.68147  0.18235  0.75070  1.0000
  Fe  Fe13      1.0  0.82084  0.32170  0.25063  1.0000
  Fe  Fe14      1.0  0.68146  0.82172  0.25067  1.0000
  Fe  Fe15      1.0  0.18143  0.68238  0.25065  1.0000
  Fe  Fe16      1.0  0.32074  0.18230  0.25060  1.0000
  C   C1        1.0  0.36451  0.18266  0.10924  1.0000
  C   C2        1.0  0.35415  0.18257  0.16406  1.0000
  C   C3        1.0  0.38319  0.18244  0.20435  1.0000
  C   C4        1.0  0.42274  0.18239  0.19002  1.0000
  C   C5        1.0  0.43172  0.18247  0.13536  1.0000
  C   C6        1.0  0.40395  0.18262  0.09683  1.0000
  C   C7        1.0  0.42247  0.18267  0.04709  1.0000
  N   N1        1.0  0.46263  0.18255  0.05402  1.0000
  C   C8        1.0  0.46761  0.18242  0.10971  1.0000
  N   N2        1.0  0.50110  0.18226  0.13711  1.0000
  C   C9        1.0  0.53461  0.18228  0.10973  1.0000
  N   N3        1.0  0.53959  0.18241  0.05404  1.0000
  C   C10       1.0  0.57976  0.18247  0.04714  1.0000
  C   C11       1.0  0.59827  0.18235  0.09688  1.0000
  C   C12       1.0  0.57049  0.18225  0.13541  1.0000
  N   N4        1.0  0.53961  0.18249  0.94734  1.0000
  C   C13       1.0  0.57978  0.18259  0.95426  1.0000
  N   N5        1.0  0.59953  0.18265  0.00010  1.0000
  C   C14       1.0  0.59830  0.18253  0.90451  1.0000
  C   C15       1.0  0.57052  0.18238  0.86599  1.0000
  C   C16       1.0  0.53464  0.18233  0.89165  1.0000
  C   C17       1.0  0.57947  0.18219  0.19007  1.0000
  C   C18       1.0  0.61902  0.18220  0.20441  1.0000
  C   C19       1.0  0.64806  0.18223  0.16412  1.0000
  C   C20       1.0  0.63770  0.18233  0.10930  1.0000
  C   C21       1.0  0.57949  0.18232  0.81133  1.0000
  C   C22       1.0  0.61903  0.18243  0.79698  1.0000
  C   C23       1.0  0.64808  0.18255  0.83726  1.0000
  C   C24       1.0  0.63773  0.18260  0.89208  1.0000
  N   N6        1.0  0.46266  0.18245  0.94732  1.0000
  C   C25       1.0  0.46765  0.18228  0.89163  1.0000
  N   N7        1.0  0.50115  0.18216  0.86425  1.0000
  C   C26       1.0  0.43178  0.18229  0.86594  1.0000
  C   C27       1.0  0.40399  0.18246  0.90445  1.0000
  C   C28       1.0  0.42249  0.18258  0.95421  1.0000
  C   C29       1.0  0.36456  0.18246  0.89198  1.0000
  C   C30       1.0  0.35424  0.18230  0.83715  1.0000
  C   C31       1.0  0.38330  0.18219  0.79689  1.0000
  C   C32       1.0  0.42284  0.18218  0.81127  1.0000
  N   N8        1.0  0.40273  0.18276  0.00010  1.0000
  H   H1        1.0  0.34524  0.18274  0.08161  1.0000
  O   O1        1.0  0.32102  0.18260  0.17650  1.0000
  O   O2        1.0  0.37420  0.18239  0.25028  1.0000
  H   H2        1.0  0.44266  0.18229  0.21676  1.0000
  H   H3        1.0  0.55956  0.18215  0.21681  1.0000
  O   O3        1.0  0.62801  0.18218  0.25033  1.0000
  O   O4        1.0  0.68119  0.18217  0.17656  1.0000
  H   H4        1.0  0.65698  0.18237  0.08168  1.0000
  H   H5        1.0  0.55957  0.18222  0.78459  1.0000
  O   O5        1.0  0.62801  0.18244  0.75105  1.0000
  O   O6        1.0  0.68121  0.18263  0.82482  1.0000
  H   H6        1.0  0.65701  0.18267  0.91970  1.0000
  H   H7        1.0  0.34527  0.18255  0.91959  1.0000
  O   O7        1.0  0.32111  0.18224  0.82467  1.0000
  O   O8        1.0  0.37434  0.18211  0.75095  1.0000
  H   H8        1.0  0.44277  0.18209  0.78456  1.0000
  Ni  Ni1       1.0  0.50112  0.18253  0.00010  1.0000
  C   C33       1.0  0.82110  0.63864  0.10927  1.0000
  C   C34       1.0  0.82102  0.64900  0.16409  1.0000
  C   C35       1.0  0.82090  0.61995  0.20438  1.0000
  C   C36       1.0  0.82084  0.58040  0.19003  1.0000
  C   C37       1.0  0.82091  0.57143  0.13537  1.0000
  C   C38       1.0  0.82106  0.59921  0.09684  1.0000
  C   C39       1.0  0.82110  0.58069  0.04710  1.0000
  N   N9        1.0  0.82098  0.54053  0.05402  1.0000
  C   C40       1.0  0.82086  0.53555  0.10971  1.0000
  N   N10       1.0  0.82070  0.50205  0.13710  1.0000
  C   C41       1.0  0.82072  0.46856  0.10971  1.0000
  N   N11       1.0  0.82083  0.46358  0.05402  1.0000
  C   C42       1.0  0.82089  0.42341  0.04711  1.0000
  C   C43       1.0  0.82078  0.40490  0.09684  1.0000
  C   C44       1.0  0.82069  0.43267  0.13538  1.0000
  N   N12       1.0  0.82090  0.46357  0.94732  1.0000
  C   C45       1.0  0.82100  0.42341  0.95422  1.0000
  N   N13       1.0  0.82106  0.40365  0.00010  1.0000
  C   C46       1.0  0.82093  0.40490  0.90448  1.0000
  C   C47       1.0  0.82077  0.43268  0.86596  1.0000
  C   C48       1.0  0.82073  0.46855  0.89163  1.0000
  C   C49       1.0  0.82064  0.42368  0.19004  1.0000
  C   C50       1.0  0.82065  0.38414  0.20436  1.0000
  C   C51       1.0  0.82067  0.35510  0.16407  1.0000
  C   C52       1.0  0.82077  0.36547  0.10926  1.0000
  C   C53       1.0  0.82070  0.42371  0.81129  1.0000
  C   C54       1.0  0.82081  0.38418  0.79694  1.0000
  C   C55       1.0  0.82094  0.35513  0.83721  1.0000
  C   C56       1.0  0.82099  0.36547  0.89204  1.0000
  N   N14       1.0  0.82086  0.54052  0.94732  1.0000
  C   C57       1.0  0.82069  0.53554  0.89163  1.0000
  N   N15       1.0  0.82056  0.50205  0.86424  1.0000
  C   C58       1.0  0.82069  0.57141  0.86595  1.0000
  C   C59       1.0  0.82087  0.59920  0.90446  1.0000
  C   C60       1.0  0.82099  0.58069  0.95422  1.0000
  C   C61       1.0  0.82087  0.63862  0.89201  1.0000
  C   C62       1.0  0.82069  0.64895  0.83718  1.0000
  C   C63       1.0  0.82058  0.61989  0.79691  1.0000
  C   C64       1.0  0.82057  0.58036  0.81128  1.0000
  N   N16       1.0  0.82118  0.60044  0.00010  1.0000
  H   H9        1.0  0.82118  0.65791  0.08164  1.0000
  O   O9        1.0  0.82105  0.68212  0.17653  1.0000
  O   O10       1.0  0.82086  0.62894  0.25031  1.0000
  H   H10       1.0  0.82075  0.56048  0.21677  1.0000
  H   H11       1.0  0.82061  0.44359  0.21678  1.0000
  O   O11       1.0  0.82064  0.37514  0.25029  1.0000
  O   O12       1.0  0.82061  0.32197  0.17650  1.0000
  H   H12       1.0  0.82080  0.34620  0.08162  1.0000
  H   H13       1.0  0.82060  0.44363  0.78456  1.0000
  O   O13       1.0  0.82082  0.37520  0.75101  1.0000
  O   O14       1.0  0.82101  0.32200  0.82476  1.0000
  H   H14       1.0  0.82107  0.34619  0.91965  1.0000
  H   H15       1.0  0.82096  0.65790  0.91962  1.0000
  O   O15       1.0  0.82063  0.68207  0.82471  1.0000
  O   O16       1.0  0.82049  0.62886  0.75097  1.0000
  H   H16       1.0  0.82048  0.56043  0.78457  1.0000
  Ni  Ni2       1.0  0.82095  0.50206  0.00010  1.0000
  C   C65       1.0  0.36452  0.82205  0.10925  1.0000
  C   C66       1.0  0.35416  0.82196  0.16407  1.0000
  C   C67       1.0  0.38320  0.82184  0.20436  1.0000
  C   C68       1.0  0.42275  0.82178  0.19003  1.0000
  C   C69       1.0  0.43173  0.82186  0.13536  1.0000
  C   C70       1.0  0.40395  0.82201  0.09683  1.0000
  C   C71       1.0  0.42247  0.82205  0.04710  1.0000
  N   N17       1.0  0.46264  0.82193  0.05402  1.0000
  C   C72       1.0  0.46761  0.82181  0.10971  1.0000
  N   N18       1.0  0.50111  0.82165  0.13711  1.0000
  C   C73       1.0  0.53461  0.82167  0.10973  1.0000
  N   N19       1.0  0.53960  0.82179  0.05404  1.0000
  C   C74       1.0  0.57977  0.82185  0.04713  1.0000
  C   C75       1.0  0.59828  0.82174  0.09687  1.0000
  C   C76       1.0  0.57050  0.82165  0.13540  1.0000
  N   N20       1.0  0.53961  0.82187  0.94734  1.0000
  C   C77       1.0  0.57978  0.82197  0.95425  1.0000
  N   N21       1.0  0.59953  0.82203  0.00010  1.0000
  C   C78       1.0  0.59829  0.82190  0.90450  1.0000
  C   C79       1.0  0.57051  0.82175  0.86598  1.0000
  C   C80       1.0  0.53463  0.82170  0.89164  1.0000
  C   C81       1.0  0.57948  0.82159  0.19006  1.0000
  C   C82       1.0  0.61903  0.82160  0.20439  1.0000
  C   C83       1.0  0.64807  0.82163  0.16411  1.0000
  C   C84       1.0  0.63771  0.82173  0.10929  1.0000
  C   C85       1.0  0.57948  0.82168  0.81132  1.0000
  C   C86       1.0  0.61902  0.82180  0.79697  1.0000
  C   C87       1.0  0.64807  0.82192  0.83725  1.0000
  C   C88       1.0  0.63772  0.82197  0.89207  1.0000
  N   N22       1.0  0.46265  0.82182  0.94732  1.0000
  C   C89       1.0  0.46765  0.82165  0.89163  1.0000
  N   N23       1.0  0.50114  0.82153  0.86425  1.0000
  C   C90       1.0  0.43178  0.82166  0.86595  1.0000
  C   C91       1.0  0.40398  0.82183  0.90446  1.0000
  C   C92       1.0  0.42249  0.82195  0.95421  1.0000
  C   C93       1.0  0.36456  0.82183  0.89200  1.0000
  C   C94       1.0  0.35423  0.82166  0.83716  1.0000
  C   C95       1.0  0.38330  0.82155  0.79690  1.0000
  C   C96       1.0  0.42283  0.82154  0.81128  1.0000
  N   N24       1.0  0.40273  0.82213  0.00010  1.0000
  H   H17       1.0  0.34525  0.82213  0.08162  1.0000
  O   O17       1.0  0.32103  0.82199  0.17651  1.0000
  O   O18       1.0  0.37421  0.82179  0.25029  1.0000
  H   H18       1.0  0.44267  0.82169  0.21676  1.0000
  H   H19       1.0  0.55957  0.82155  0.21680  1.0000
  O   O19       1.0  0.62802  0.82159  0.25032  1.0000
  O   O20       1.0  0.68120  0.82157  0.17654  1.0000
  H   H20       1.0  0.65698  0.82176  0.08166  1.0000
  H   H21       1.0  0.55957  0.82159  0.78458  1.0000
  O   O21       1.0  0.62800  0.82180  0.75104  1.0000
  O   O22       1.0  0.68120  0.82200  0.82480  1.0000
  H   H22       1.0  0.65701  0.82205  0.91969  1.0000
  H   H23       1.0  0.34527  0.82192  0.91960  1.0000
  O   O23       1.0  0.32111  0.82160  0.82469  1.0000
  O   O24       1.0  0.37433  0.82146  0.75096  1.0000
  H   H24       1.0  0.44277  0.82145  0.78457  1.0000
  Ni  Ni3       1.0  0.50112  0.82191  0.00010  1.0000
  C   C97       1.0  0.18180  0.63863  0.10927  1.0000
  C   C98       1.0  0.18171  0.64898  0.16410  1.0000
  C   C99       1.0  0.18158  0.61994  0.20438  1.0000
  C   C100      1.0  0.18152  0.58039  0.19003  1.0000
  C   C101      1.0  0.18160  0.57142  0.13537  1.0000
  C   C102      1.0  0.18176  0.59920  0.09685  1.0000
  C   C103      1.0  0.18181  0.58068  0.04711  1.0000
  N   N25       1.0  0.18169  0.54052  0.05402  1.0000
  C   C104      1.0  0.18156  0.53554  0.10971  1.0000
  N   N26       1.0  0.18139  0.50204  0.13710  1.0000
  C   C105      1.0  0.18142  0.46854  0.10971  1.0000
  N   N27       1.0  0.18155  0.46356  0.05402  1.0000
  C   C106      1.0  0.18161  0.42340  0.04710  1.0000
  C   C107      1.0  0.18148  0.40489  0.09684  1.0000
  C   C108      1.0  0.18138  0.43266  0.13537  1.0000
  N   N28       1.0  0.18164  0.46356  0.94732  1.0000
  C   C109      1.0  0.18174  0.42340  0.95422  1.0000
  N   N29       1.0  0.18179  0.40364  0.00010  1.0000
  C   C110      1.0  0.18168  0.40489  0.90447  1.0000
  C   C111      1.0  0.18153  0.43267  0.86596  1.0000
  C   C112      1.0  0.18149  0.46855  0.89163  1.0000
  C   C113      1.0  0.18132  0.42367  0.19003  1.0000
  C   C114      1.0  0.18132  0.38412  0.20436  1.0000
  C   C115      1.0  0.18136  0.35509  0.16407  1.0000
  C   C116      1.0  0.18146  0.36546  0.10925  1.0000
  C   C117      1.0  0.18148  0.42371  0.81129  1.0000
  C   C118      1.0  0.18159  0.38417  0.79693  1.0000
  C   C119      1.0  0.18171  0.35512  0.83721  1.0000
  C   C120      1.0  0.18175  0.36547  0.89203  1.0000
  N   N30       1.0  0.18160  0.54052  0.94732  1.0000
  C   C121      1.0  0.18144  0.53553  0.89163  1.0000
  N   N31       1.0  0.18132  0.50204  0.86424  1.0000
  C   C122      1.0  0.18145  0.57140  0.86596  1.0000
  C   C123      1.0  0.18162  0.59919  0.90447  1.0000
  C   C124      1.0  0.18173  0.58068  0.95422  1.0000
  C   C125      1.0  0.18162  0.63861  0.89202  1.0000
  C   C126      1.0  0.18146  0.64894  0.83718  1.0000
  C   C127      1.0  0.18136  0.61989  0.79692  1.0000
  C   C128      1.0  0.18135  0.58035  0.81129  1.0000
  N   N32       1.0  0.18191  0.60043  0.00010  1.0000
  H   H25       1.0  0.18189  0.65790  0.08165  1.0000
  O   O25       1.0  0.18174  0.68211  0.17654  1.0000
  O   O26       1.0  0.18152  0.62892  0.25031  1.0000
  H   H26       1.0  0.18142  0.56047  0.21677  1.0000
  H   H27       1.0  0.18128  0.44358  0.21678  1.0000
  O   O27       1.0  0.18130  0.37513  0.25028  1.0000
  O   O28       1.0  0.18129  0.32196  0.17649  1.0000
  H   H28       1.0  0.18150  0.34619  0.08162  1.0000
  H   H29       1.0  0.18138  0.44363  0.78456  1.0000
  O   O29       1.0  0.18160  0.37520  0.75100  1.0000
  O   O30       1.0  0.18178  0.32200  0.82475  1.0000
  H   H30       1.0  0.18182  0.34618  0.91964  1.0000
  H   H31       1.0  0.18171  0.65790  0.91963  1.0000
  O   O31       1.0  0.18140  0.68207  0.82472  1.0000
  O   O32       1.0  0.18128  0.62886  0.75098  1.0000
  H   H32       1.0  0.18126  0.56042  0.78457  1.0000
  Ni  Ni4       1.0  0.18168  0.50205  0.00010  1.0000
  C   C129      1.0  0.86453  0.68268  0.60927  1.0000
  C   C130      1.0  0.85417  0.68259  0.66409  1.0000
  C   C131      1.0  0.88322  0.68246  0.70438  1.0000
  C   C132      1.0  0.92277  0.68240  0.69003  1.0000
  C   C133      1.0  0.93174  0.68248  0.63537  1.0000
  C   C134      1.0  0.90396  0.68264  0.59684  1.0000
  C   C135      1.0  0.92247  0.68269  0.54711  1.0000
  N   N33       1.0  0.96264  0.68257  0.55402  1.0000
  C   C136      1.0  0.96762  0.68244  0.60971  1.0000
  N   N34       1.0  0.00112  0.68226  0.63710  1.0000
  C   C137      1.0  0.03462  0.68229  0.60972  1.0000
  N   N35       1.0  0.03960  0.68242  0.55402  1.0000
  C   C138      1.0  0.07977  0.68247  0.54711  1.0000
  C   C139      1.0  0.09828  0.68235  0.59685  1.0000
  C   C140      1.0  0.07051  0.68225  0.63538  1.0000
  N   N36       1.0  0.03960  0.68250  0.44732  1.0000
  C   C141      1.0  0.07977  0.68261  0.45422  1.0000
  N   N37       1.0  0.09953  0.68265  0.50067  1.0000
  C   C142      1.0  0.09828  0.68254  0.40448  1.0000
  C   C143      1.0  0.07050  0.68239  0.36596  1.0000
  C   C144      1.0  0.03462  0.68235  0.39163  1.0000
  C   C145      1.0  0.07950  0.68218  0.69004  1.0000
  C   C146      1.0  0.11904  0.68218  0.70436  1.0000
  C   C147      1.0  0.14808  0.68222  0.66407  1.0000
  C   C148      1.0  0.13771  0.68233  0.60926  1.0000
  C   C149      1.0  0.07946  0.68234  0.31129  1.0000
  C   C150      1.0  0.11900  0.68245  0.29694  1.0000
  C   C151      1.0  0.14805  0.68256  0.33721  1.0000
  C   C152      1.0  0.13771  0.68260  0.39204  1.0000
  N   N38       1.0  0.96265  0.68247  0.44732  1.0000
  C   C153      1.0  0.96763  0.68231  0.39163  1.0000
  N   N39       1.0  0.00112  0.68219  0.36424  1.0000
  C   C154      1.0  0.93176  0.68233  0.36595  1.0000
  C   C155      1.0  0.90397  0.68250  0.40447  1.0000
  C   C156      1.0  0.92248  0.68260  0.45422  1.0000
  C   C157      1.0  0.86455  0.68250  0.39201  1.0000
  C   C158      1.0  0.85421  0.68234  0.33718  1.0000
  C   C159      1.0  0.88327  0.68223  0.29691  1.0000
  C   C160      1.0  0.92281  0.68222  0.31129  1.0000
  N   N40       1.0  0.90273  0.68278  0.50066  1.0000
  H   H33       1.0  0.84525  0.68277  0.58165  1.0000
  O   O33       1.0  0.82104  0.68262  0.67654  1.0000
  O   O34       1.0  0.87423  0.68241  0.75031  1.0000
  H   H34       1.0  0.94269  0.68230  0.71677  1.0000
  H   H35       1.0  0.05959  0.68215  0.71679  1.0000
  O   O35       1.0  0.12804  0.68217  0.75029  1.0000
  O   O36       1.0  0.18122  0.68215  0.67650  1.0000
  H   H36       1.0  0.15698  0.68236  0.58162  1.0000
  H   H37       1.0  0.05954  0.68225  0.28456  1.0000
  O   O37       1.0  0.12798  0.68246  0.25101  1.0000
  O   O38       1.0  0.18118  0.68264  0.32476  1.0000
  H   H38       1.0  0.15699  0.68268  0.41965  1.0000
  H   H39       1.0  0.84526  0.68259  0.41962  1.0000
  O   O39       1.0  0.82109  0.68228  0.32471  1.0000
  O   O40       1.0  0.87430  0.68216  0.25098  1.0000
  H   H40       1.0  0.94274  0.68213  0.28457  1.0000
  Ni  Ni5       1.0  0.00112  0.68255  0.50067  1.0000
  C   C161      1.0  0.32111  0.13862  0.60925  1.0000
  C   C162      1.0  0.32104  0.14898  0.66408  1.0000
  C   C163      1.0  0.32092  0.11993  0.70436  1.0000
  C   C164      1.0  0.32085  0.08039  0.69002  1.0000
  C   C165      1.0  0.32092  0.07141  0.63536  1.0000
  C   C166      1.0  0.32107  0.09919  0.59683  1.0000
  C   C167      1.0  0.32110  0.08068  0.54709  1.0000
  N   N41       1.0  0.32098  0.04051  0.55401  1.0000
  C   C168      1.0  0.32087  0.03553  0.60969  1.0000
  N   N42       1.0  0.32071  0.00204  0.63709  1.0000
  C   C169      1.0  0.32072  0.96854  0.60970  1.0000
  N   N43       1.0  0.32083  0.96356  0.55401  1.0000
  C   C170      1.0  0.32089  0.92339  0.54710  1.0000
  C   C171      1.0  0.32078  0.90488  0.59683  1.0000
  C   C172      1.0  0.32070  0.93265  0.63536  1.0000
  N   N44       1.0  0.32089  0.96355  0.44731  1.0000
  C   C173      1.0  0.32099  0.92339  0.45421  1.0000
  N   N45       1.0  0.32106  0.90363  0.50065  1.0000
  C   C174      1.0  0.32091  0.90488  0.40447  1.0000
  C   C175      1.0  0.32075  0.93266  0.36595  1.0000
  C   C176      1.0  0.32072  0.96853  0.39162  1.0000
  C   C177      1.0  0.32065  0.92367  0.69003  1.0000
  C   C178      1.0  0.32066  0.88412  0.70435  1.0000
  C   C179      1.0  0.32068  0.85508  0.66406  1.0000
  C   C180      1.0  0.32077  0.86545  0.60924  1.0000
  C   C181      1.0  0.32068  0.92369  0.31128  1.0000
  C   C182      1.0  0.32079  0.88416  0.29693  1.0000
  C   C183      1.0  0.32092  0.85511  0.33720  1.0000
  C   C184      1.0  0.32098  0.86545  0.39203  1.0000
  N   N46       1.0  0.32085  0.04051  0.44730  1.0000
  C   C185      1.0  0.32067  0.03552  0.39162  1.0000
  N   N47       1.0  0.32054  0.00203  0.36423  1.0000
  C   C186      1.0  0.32068  0.07139  0.36594  1.0000
  C   C187      1.0  0.32086  0.09918  0.40445  1.0000
  C   C188      1.0  0.32098  0.08067  0.45420  1.0000
  C   C189      1.0  0.32085  0.13860  0.39200  1.0000
  C   C190      1.0  0.32068  0.14893  0.33716  1.0000
  C   C191      1.0  0.32056  0.11987  0.29690  1.0000
  C   C192      1.0  0.32055  0.08034  0.31127  1.0000
  N   N48       1.0  0.32118  0.10042  0.50065  1.0000
  H   H41       1.0  0.32119  0.15790  0.58163  1.0000
  O   O41       1.0  0.32107  0.18211  0.67652  1.0000
  O   O42       1.0  0.32088  0.12892  0.75029  1.0000
  H   H42       1.0  0.32077  0.06047  0.71675  1.0000
  H   H43       1.0  0.32062  0.94357  0.71677  1.0000
  O   O43       1.0  0.32066  0.87513  0.75028  1.0000
  O   O44       1.0  0.32062  0.82195  0.67649  1.0000
  H   H44       1.0  0.32080  0.84618  0.58161  1.0000
  H   H45       1.0  0.32058  0.94361  0.28455  1.0000
  O   O45       1.0  0.32079  0.87518  0.25100  1.0000
  O   O46       1.0  0.32099  0.82199  0.32475  1.0000
  H   H46       1.0  0.32106  0.84617  0.41964  1.0000
  H   H47       1.0  0.32095  0.15788  0.41961  1.0000
  O   O47       1.0  0.32061  0.18205  0.32470  1.0000
  O   O48       1.0  0.32047  0.12884  0.25096  1.0000
  H   H48       1.0  0.32045  0.06041  0.28455  1.0000
  Ni  Ni6       1.0  0.32095  0.00204  0.50066  1.0000
  C   C193      1.0  0.86454  0.32209  0.60928  1.0000
  C   C194      1.0  0.85418  0.32201  0.66410  1.0000
  C   C195      1.0  0.88323  0.32189  0.70438  1.0000
  C   C196      1.0  0.92278  0.32182  0.69004  1.0000
  C   C197      1.0  0.93175  0.32189  0.63537  1.0000
  C   C198      1.0  0.90397  0.32205  0.59685  1.0000
  C   C199      1.0  0.92248  0.32208  0.54711  1.0000
  N   N49       1.0  0.96265  0.32196  0.55402  1.0000
  C   C200      1.0  0.96763  0.32184  0.60971  1.0000
  N   N50       1.0  0.00113  0.32168  0.63710  1.0000
  C   C201      1.0  0.03463  0.32170  0.60972  1.0000
  N   N51       1.0  0.03961  0.32181  0.55402  1.0000
  C   C202      1.0  0.07978  0.32187  0.54711  1.0000
  C   C203      1.0  0.09829  0.32176  0.59684  1.0000
  C   C204      1.0  0.07052  0.32167  0.63538  1.0000
  N   N52       1.0  0.03961  0.32188  0.44732  1.0000
  C   C205      1.0  0.07978  0.32198  0.45422  1.0000
  N   N53       1.0  0.09953  0.32204  0.50066  1.0000
  C   C206      1.0  0.09829  0.32191  0.40447  1.0000
  C   C207      1.0  0.07050  0.32175  0.36596  1.0000
  C   C208      1.0  0.03462  0.32172  0.39163  1.0000
  C   C209      1.0  0.07951  0.32161  0.69004  1.0000
  C   C210      1.0  0.11906  0.32162  0.70436  1.0000
  C   C211      1.0  0.14809  0.32164  0.66407  1.0000
  C   C212      1.0  0.13772  0.32174  0.60925  1.0000
  C   C213      1.0  0.07947  0.32169  0.31129  1.0000
  C   C214      1.0  0.11900  0.32179  0.29693  1.0000
  C   C215      1.0  0.14805  0.32192  0.33721  1.0000
  C   C216      1.0  0.13771  0.32197  0.39203  1.0000
  N   N54       1.0  0.96265  0.32184  0.44732  1.0000
  C   C217      1.0  0.96764  0.32167  0.39163  1.0000
  N   N55       1.0  0.00113  0.32154  0.36424  1.0000
  C   C218      1.0  0.93177  0.32168  0.36596  1.0000
  C   C219      1.0  0.90398  0.32186  0.40447  1.0000
  C   C220      1.0  0.92249  0.32198  0.45422  1.0000
  C   C221      1.0  0.86455  0.32186  0.39202  1.0000
  C   C222      1.0  0.85422  0.32169  0.33719  1.0000
  C   C223      1.0  0.88328  0.32157  0.29692  1.0000
  C   C224      1.0  0.92281  0.32156  0.31129  1.0000
  N   N56       1.0  0.90273  0.32217  0.50067  1.0000
  H   H49       1.0  0.84526  0.32217  0.58165  1.0000
  O   O49       1.0  0.82105  0.32204  0.67655  1.0000
  O   O50       1.0  0.87424  0.32184  0.75031  1.0000
  H   H50       1.0  0.94270  0.32173  0.71677  1.0000
  H   H51       1.0  0.05960  0.32158  0.71678  1.0000
  O   O51       1.0  0.12805  0.32161  0.75029  1.0000
  O   O52       1.0  0.18123  0.32158  0.67649  1.0000
  H   H52       1.0  0.15699  0.32177  0.58162  1.0000
  H   H53       1.0  0.05954  0.32159  0.28456  1.0000
  O   O53       1.0  0.12798  0.32180  0.25100  1.0000
  O   O54       1.0  0.18118  0.32199  0.32475  1.0000
  H   H54       1.0  0.15700  0.32205  0.41964  1.0000
  H   H55       1.0  0.84526  0.32195  0.41963  1.0000
  O   O55       1.0  0.82109  0.32163  0.32472  1.0000
  O   O56       1.0  0.87430  0.32149  0.25098  1.0000
  H   H56       1.0  0.94274  0.32147  0.28457  1.0000
  Ni  Ni7       1.0  0.00113  0.32193  0.50067  1.0000
  C   C225      1.0  0.68181  0.86546  0.39206  1.0000
  C   C226      1.0  0.68172  0.85511  0.33723  1.0000
  C   C227      1.0  0.68159  0.88416  0.29695  1.0000
  C   C228      1.0  0.68153  0.92370  0.31130  1.0000
  C   C229      1.0  0.68161  0.93267  0.36596  1.0000
  C   C230      1.0  0.68177  0.90489  0.40449  1.0000
  C   C231      1.0  0.68181  0.92340  0.45423  1.0000
  N   N57       1.0  0.68169  0.96357  0.44731  1.0000
  C   C232      1.0  0.68156  0.96855  0.39163  1.0000
  N   N58       1.0  0.68140  0.00205  0.36424  1.0000
  C   C233      1.0  0.68142  0.03555  0.39162  1.0000
  N   N59       1.0  0.68154  0.04052  0.44732  1.0000
  C   C234      1.0  0.68160  0.08069  0.45423  1.0000
  C   C235      1.0  0.68148  0.09920  0.40450  1.0000
  C   C236      1.0  0.68138  0.07143  0.36596  1.0000
  N   N60       1.0  0.68162  0.04052  0.55402  1.0000
  C   C237      1.0  0.68173  0.08069  0.54712  1.0000
  N   N61       1.0  0.68178  0.10044  0.50068  1.0000
  C   C238      1.0  0.68166  0.09920  0.59687  1.0000
  C   C239      1.0  0.68151  0.07141  0.63538  1.0000
  C   C240      1.0  0.68147  0.03554  0.60971  1.0000
  C   C241      1.0  0.68132  0.08042  0.31130  1.0000
  C   C242      1.0  0.68132  0.11997  0.29698  1.0000
  C   C243      1.0  0.68136  0.14900  0.33728  1.0000
  C   C244      1.0  0.68146  0.13863  0.39209  1.0000
  C   C245      1.0  0.68145  0.08038  0.69005  1.0000
  C   C246      1.0  0.68156  0.11991  0.70441  1.0000
  C   C247      1.0  0.68168  0.14896  0.66413  1.0000
  C   C248      1.0  0.68172  0.13862  0.60931  1.0000
  N   N62       1.0  0.68159  0.96357  0.55402  1.0000
  C   C249      1.0  0.68142  0.96855  0.60970  1.0000
  N   N63       1.0  0.68130  0.00204  0.63710  1.0000
  C   C250      1.0  0.68144  0.93269  0.63538  1.0000
  C   C251      1.0  0.68161  0.90490  0.59686  1.0000
  C   C252      1.0  0.68172  0.92341  0.54711  1.0000
  C   C253      1.0  0.68161  0.86548  0.60931  1.0000
  C   C254      1.0  0.68145  0.85514  0.66415  1.0000
  C   C255      1.0  0.68134  0.88420  0.70442  1.0000
  C   C256      1.0  0.68133  0.92373  0.69005  1.0000
  N   N64       1.0  0.68190  0.90366  0.50067  1.0000
  H   H57       1.0  0.68190  0.84619  0.41968  1.0000
  O   O57       1.0  0.68175  0.82198  0.32479  1.0000
  O   O58       1.0  0.68154  0.87517  0.25102  1.0000
  H   H58       1.0  0.68144  0.94362  0.28457  1.0000
  H   H59       1.0  0.68129  0.06051  0.28456  1.0000
  O   O59       1.0  0.68131  0.12896  0.25106  1.0000
  O   O60       1.0  0.68129  0.18213  0.32485  1.0000
  H   H60       1.0  0.68150  0.15790  0.41972  1.0000
  H   H61       1.0  0.68135  0.06045  0.71678  1.0000
  O   O61       1.0  0.68157  0.12888  0.75034  1.0000
  O   O62       1.0  0.68175  0.18209  0.67659  1.0000
  H   H62       1.0  0.68180  0.15791  0.58170  1.0000
  H   H63       1.0  0.68170  0.84619  0.58170  1.0000
  O   O63       1.0  0.68139  0.82202  0.67661  1.0000
  O   O64       1.0  0.68126  0.87523  0.75035  1.0000
  H   H64       1.0  0.68123  0.94366  0.71677  1.0000
  Ni  Ni8       1.0  0.68167  0.00204  0.50066  1.0000
  C   C257      1.0  0.27723  0.27811  0.25061  1.0000
  C   C258      1.0  0.28678  0.24241  0.25060  1.0000
  C   C259      1.0  0.26063  0.21628  0.25060  1.0000
  C   C260      1.0  0.22493  0.22587  0.25061  1.0000
  C   C261      1.0  0.21538  0.26157  0.25062  1.0000
  C   C262      1.0  0.24153  0.28770  0.25062  1.0000
  H   H65       1.0  0.29684  0.29771  0.25061  1.0000
  O   O65       1.0  0.31891  0.23378  0.25060  1.0000
  O   O66       1.0  0.26923  0.18415  0.25059  1.0000
  H   H66       1.0  0.20532  0.20627  0.25061  1.0000
  O   O67       1.0  0.18325  0.27020  0.25063  1.0000
  O   O68       1.0  0.23294  0.31983  0.25063  1.0000
  C   C263      1.0  0.72501  0.27820  0.25067  1.0000
  C   C264      1.0  0.71543  0.24250  0.25069  1.0000
  C   C265      1.0  0.74156  0.21635  0.25068  1.0000
  C   C266      1.0  0.77727  0.22590  0.25066  1.0000
  C   C267      1.0  0.78685  0.26160  0.25065  1.0000
  C   C268      1.0  0.76072  0.28775  0.25065  1.0000
  H   H67       1.0  0.70542  0.29781  0.25067  1.0000
  O   O69       1.0  0.68329  0.23391  0.25070  1.0000
  O   O70       1.0  0.73293  0.18423  0.25070  1.0000
  H   H68       1.0  0.79686  0.20629  0.25066  1.0000
  O   O71       1.0  0.81899  0.27020  0.25063  1.0000
  O   O72       1.0  0.76935  0.31988  0.25064  1.0000
  C   C269      1.0  0.77728  0.77820  0.25068  1.0000
  C   C270      1.0  0.74157  0.78776  0.25067  1.0000
  C   C271      1.0  0.71544  0.76162  0.25065  1.0000
  C   C272      1.0  0.72501  0.72592  0.25063  1.0000
  C   C273      1.0  0.76072  0.71636  0.25063  1.0000
  C   C274      1.0  0.78685  0.74250  0.25065  1.0000
  H   H69       1.0  0.79688  0.79781  0.25070  1.0000
  O   O73       1.0  0.73295  0.81989  0.25069  1.0000
  O   O74       1.0  0.68330  0.77022  0.25065  1.0000
  H   H70       1.0  0.70541  0.70631  0.25061  1.0000
  O   O75       1.0  0.76934  0.68423  0.25061  1.0000
  O   O76       1.0  0.81899  0.73390  0.25066  1.0000
  C   C275      1.0  0.22495  0.77819  0.25060  1.0000
  C   C276      1.0  0.21539  0.74249  0.25062  1.0000
  C   C277      1.0  0.24153  0.71636  0.25066  1.0000
  C   C278      1.0  0.27723  0.72593  0.25067  1.0000
  C   C279      1.0  0.28679  0.76164  0.25065  1.0000
  C   C280      1.0  0.26065  0.78777  0.25062  1.0000
  H   H71       1.0  0.20534  0.79779  0.25058  1.0000
  O   O77       1.0  0.18325  0.73388  0.25061  1.0000
  O   O78       1.0  0.23292  0.68422  0.25068  1.0000
  H   H72       1.0  0.29684  0.70633  0.25070  1.0000
  O   O79       1.0  0.31893  0.77025  0.25066  1.0000
  O   O80       1.0  0.26925  0.81990  0.25060  1.0000
  C   C281      1.0  0.22504  0.77813  0.75061  1.0000
  C   C282      1.0  0.21547  0.74243  0.75061  1.0000
  C   C283      1.0  0.24160  0.71629  0.75061  1.0000
  C   C284      1.0  0.27731  0.72585  0.75060  1.0000
  C   C285      1.0  0.28688  0.76155  0.75060  1.0000
  C   C286      1.0  0.26075  0.78769  0.75060  1.0000
  H   H73       1.0  0.20544  0.79774  0.75061  1.0000
  O   O81       1.0  0.18333  0.73382  0.75062  1.0000
  O   O82       1.0  0.23299  0.68416  0.75062  1.0000
  H   H74       1.0  0.29691  0.70624  0.75060  1.0000
  O   O83       1.0  0.31902  0.77016  0.75059  1.0000
  O   O84       1.0  0.26936  0.81982  0.75059  1.0000
  C   C287      1.0  0.22505  0.22594  0.75061  1.0000
  C   C288      1.0  0.26075  0.21638  0.75060  1.0000
  C   C289      1.0  0.28689  0.24251  0.75060  1.0000
  C   C290      1.0  0.27732  0.27821  0.75061  1.0000
  C   C291      1.0  0.24162  0.28778  0.75061  1.0000
  C   C292      1.0  0.21548  0.26164  0.75062  1.0000
  H   H75       1.0  0.20544  0.20634  0.75061  1.0000
  O   O85       1.0  0.26936  0.18424  0.75060  1.0000
  O   O86       1.0  0.31902  0.23390  0.75059  1.0000
  H   H76       1.0  0.29692  0.29782  0.75061  1.0000
  O   O87       1.0  0.23300  0.31991  0.75062  1.0000
  O   O88       1.0  0.18334  0.27025  0.75062  1.0000
  C   C293      1.0  0.72498  0.27817  0.75068  1.0000
  C   C294      1.0  0.76068  0.28775  0.75067  1.0000
  C   C295      1.0  0.78683  0.26163  0.75067  1.0000
  C   C296      1.0  0.77728  0.22592  0.75069  1.0000
  C   C297      1.0  0.74158  0.21634  0.75069  1.0000
  C   C298      1.0  0.71543  0.24246  0.75069  1.0000
  H   H77       1.0  0.70537  0.29776  0.75067  1.0000
  O   O89       1.0  0.76928  0.31989  0.75066  1.0000
  O   O90       1.0  0.81896  0.27025  0.75066  1.0000
  H   H78       1.0  0.79689  0.20633  0.75069  1.0000
  O   O91       1.0  0.73298  0.18420  0.75071  1.0000
  O   O92       1.0  0.68330  0.23384  0.75070  1.0000
  C   C299      1.0  0.77727  0.77817  0.75067  1.0000
  C   C300      1.0  0.78681  0.74246  0.75065  1.0000
  C   C301      1.0  0.76066  0.71634  0.75065  1.0000
  C   C302      1.0  0.72496  0.72593  0.75066  1.0000
  C   C303      1.0  0.71542  0.76164  0.75068  1.0000
  C   C304      1.0  0.74157  0.78776  0.75069  1.0000
  H   H79       1.0  0.79688  0.79776  0.75068  1.0000
  O   O93       1.0  0.81894  0.73383  0.75064  1.0000
  O   O94       1.0  0.76925  0.68420  0.75063  1.0000
  H   H80       1.0  0.70534  0.70634  0.75065  1.0000
  O   O95       1.0  0.68329  0.77027  0.75069  1.0000
  O   O96       1.0  0.73298  0.81989  0.75071  1.0000
