data_image0
_chemical_formula_structural       C7NCNCNC3NCNC11NCNC7NHO2H2O2H2O2H2O2HNiC7NCNCNC3NCNC11NCNC7NHO2H2O2H2O2H2O2HNiC7NCNCNC3NCNC11NCNC7NHO2H2O2H2O2H2O2HNiC7NCNCNC3NCNC11NCNC7NHO2H2O2H2O2H2O2HNiFe8C6O2HO2HCuC6O2HO2HCuC6O2HO2HCuC6O2HO2HCuC6O2HO2HCuC6O2HO2HCuC6O2HO2HCuC6O2HO2HCuC6O2HO2HCuC6O2HO2HCuC6O2HO2HCuC6O2HO2HCuC6O2HO2HCuC6O2HO2HCuC6O2HO2HCuC6O2HO2HCuC6HO2HO2C6HO2HO2C6HO2HO2C6HO2HO2
_chemical_formula_sum              "C248 N32 H72 O112 Ni4 Fe8 Cu16"
_cell_length_a       50.9531
_cell_length_b       36.0523
_cell_length_c       50.9734
_cell_angle_alpha    90.0001
_cell_angle_beta     89.9975
_cell_angle_gamma    90.0001

_space_group_name_H-M_alt    "P 1"
_space_group_IT_number       1

loop_
  _space_group_symop_operation_xyz
  'x, y, z'

loop_
  _atom_site_type_symbol
  _atom_site_label
  _atom_site_symmetry_multiplicity
  _atom_site_fract_x
  _atom_site_fract_y
  _atom_site_fract_z
  _atom_site_occupancy
  C   C1        1.0  0.29331  0.30774  0.90089  1.0000
  C   C2        1.0  0.31404  0.33719  0.89319  1.0000
  C   C3        1.0  0.32924  0.35887  0.91478  1.0000
  C   C4        1.0  0.32377  0.35122  0.94416  1.0000
  C   C5        1.0  0.30310  0.32187  0.95083  1.0000
  C   C6        1.0  0.28858  0.30111  0.93018  1.0000
  C   C7        1.0  0.26975  0.27442  0.94394  1.0000
  N   N1        1.0  0.27231  0.27821  0.97378  1.0000
  C   C8        1.0  0.29335  0.30815  0.97749  1.0000
  N   N2        1.0  0.30364  0.32294  0.00238  1.0000
  C   C9        1.0  0.29327  0.30825  0.02727  1.0000
  N   N3        1.0  0.27223  0.27831  0.03097  1.0000
  C   C10       1.0  0.26964  0.27456  0.06081  1.0000
  C   C11       1.0  0.28842  0.30130  0.07457  1.0000
  C   C12       1.0  0.30298  0.32202  0.05393  1.0000
  N   N4        1.0  0.23183  0.22107  0.03096  1.0000
  C   C13       1.0  0.23450  0.22469  0.06081  1.0000
  N   N5        1.0  0.25213  0.24954  0.07549  1.0000
  C   C14       1.0  0.21561  0.19808  0.07456  1.0000
  C   C15       1.0  0.20093  0.17755  0.05392  1.0000
  C   C16       1.0  0.21064  0.19135  0.02726  1.0000
  C   C17       1.0  0.32366  0.35135  0.06061  1.0000
  C   C18       1.0  0.32909  0.35902  0.09000  1.0000
  C   C19       1.0  0.31384  0.33740  0.11157  1.0000
  C   C20       1.0  0.29312  0.30795  0.10387  1.0000
  C   C21       1.0  0.18018  0.14830  0.06057  1.0000
  C   C22       1.0  0.17480  0.14052  0.08995  1.0000
  C   C23       1.0  0.19012  0.16201  0.11154  1.0000
  C   C24       1.0  0.21093  0.19136  0.10386  1.0000
  N   N6        1.0  0.23181  0.22111  0.97378  1.0000
  C   C25       1.0  0.21062  0.19139  0.97749  1.0000
  N   N7        1.0  0.20017  0.17680  0.00237  1.0000
  C   C26       1.0  0.20089  0.17763  0.95083  1.0000
  C   C27       1.0  0.21558  0.19814  0.93019  1.0000
  C   C28       1.0  0.23450  0.22471  0.94394  1.0000
  C   C29       1.0  0.21086  0.19147  0.90089  1.0000
  C   C30       1.0  0.18999  0.16221  0.89321  1.0000
  C   C31       1.0  0.17467  0.14071  0.91480  1.0000
  C   C32       1.0  0.18011  0.14841  0.94418  1.0000
  N   N8        1.0  0.25219  0.24947  0.92926  1.0000
  H   H1        1.0  0.28288  0.29288  0.88656  1.0000
  O   O1        1.0  0.31877  0.34384  0.86858  1.0000
  O   O2        1.0  0.34662  0.38352  0.90810  1.0000
  H   H2        1.0  0.33386  0.36561  0.95896  1.0000
  H   H3        1.0  0.33378  0.36572  0.04582  1.0000
  O   O3        1.0  0.34649  0.38364  0.09669  1.0000
  O   O4        1.0  0.31852  0.34410  0.13619  1.0000
  H   H4        1.0  0.28266  0.29312  0.11818  1.0000
  H   H5        1.0  0.17000  0.13405  0.04577  1.0000
  O   O5        1.0  0.15739  0.11590  0.09662  1.0000
  O   O6        1.0  0.18544  0.15528  0.13615  1.0000
  H   H6        1.0  0.22143  0.20610  0.11819  1.0000
  H   H7        1.0  0.22137  0.20620  0.88656  1.0000
  O   O7        1.0  0.18524  0.15558  0.86860  1.0000
  O   O8        1.0  0.15722  0.11616  0.90814  1.0000
  H   H8        1.0  0.16994  0.13416  0.95899  1.0000
  Ni  Ni1       1.0  0.25208  0.24963  0.00237  1.0000
  C   C33       1.0  0.78884  0.81646  0.10388  1.0000
  C   C34       1.0  0.80966  0.84578  0.11158  1.0000
  C   C35       1.0  0.82499  0.86727  0.08999  1.0000
  C   C36       1.0  0.81959  0.85954  0.06061  1.0000
  C   C37       1.0  0.79883  0.83030  0.05394  1.0000
  C   C38       1.0  0.78415  0.80977  0.07459  1.0000
  C   C39       1.0  0.76528  0.78315  0.06083  1.0000
  N   N9        1.0  0.76796  0.78676  0.03099  1.0000
  C   C40       1.0  0.78913  0.81652  0.02728  1.0000
  N   N10       1.0  0.79960  0.83107  0.00239  1.0000
  C   C41       1.0  0.78921  0.81641  0.97750  1.0000
  N   N11       1.0  0.76804  0.78666  0.97380  1.0000
  C   C42       1.0  0.76539  0.78299  0.94396  1.0000
  C   C43       1.0  0.78430  0.80956  0.93020  1.0000
  C   C44       1.0  0.79895  0.83014  0.95084  1.0000
  N   N12       1.0  0.72756  0.72953  0.97380  1.0000
  C   C45       1.0  0.73012  0.73331  0.94396  1.0000
  N   N13       1.0  0.74769  0.75823  0.92928  1.0000
  C   C46       1.0  0.71131  0.70659  0.93020  1.0000
  C   C47       1.0  0.69679  0.68584  0.95085  1.0000
  C   C48       1.0  0.70654  0.69957  0.97751  1.0000
  C   C49       1.0  0.81970  0.85939  0.94416  1.0000
  C   C50       1.0  0.82513  0.86707  0.91477  1.0000
  C   C51       1.0  0.80984  0.84550  0.89320  1.0000
  C   C52       1.0  0.78901  0.81620  0.90090  1.0000
  C   C53       1.0  0.67610  0.65650  0.94419  1.0000
  C   C54       1.0  0.67060  0.64889  0.91481  1.0000
  C   C55       1.0  0.68580  0.67056  0.89323  1.0000
  C   C56       1.0  0.70656  0.69998  0.90091  1.0000
  N   N14       1.0  0.72758  0.72950  0.03098  1.0000
  C   C57       1.0  0.70656  0.69953  0.02728  1.0000
  N   N15       1.0  0.69625  0.68476  0.00239  1.0000
  C   C58       1.0  0.69683  0.68578  0.05393  1.0000
  C   C59       1.0  0.71133  0.70655  0.07458  1.0000
  C   C60       1.0  0.73013  0.73330  0.06083  1.0000
  C   C61       1.0  0.70661  0.69988  0.10387  1.0000
  C   C62       1.0  0.68592  0.67037  0.11155  1.0000
  C   C63       1.0  0.67072  0.64871  0.08996  1.0000
  C   C64       1.0  0.67617  0.65640  0.06058  1.0000
  N   N16       1.0  0.74763  0.75832  0.07550  1.0000
  H   H9        1.0  0.77833  0.80172  0.11821  1.0000
  O   O9        1.0  0.81436  0.85247  0.13619  1.0000
  O   O10       1.0  0.84243  0.89185  0.09667  1.0000
  H   H10       1.0  0.82977  0.87380  0.04581  1.0000
  H   H11       1.0  0.82985  0.87370  0.95895  1.0000
  O   O11       1.0  0.84254  0.89167  0.90809  1.0000
  O   O12       1.0  0.81458  0.85211  0.86858  1.0000
  H   H12       1.0  0.77852  0.80142  0.88658  1.0000
  H   H13       1.0  0.66602  0.64210  0.95899  1.0000
  O   O13       1.0  0.65319  0.62428  0.90814  1.0000
  O   O14       1.0  0.68104  0.66394  0.86861  1.0000
  H   H14       1.0  0.71698  0.71483  0.88658  1.0000
  H   H15       1.0  0.71703  0.71474  0.11820  1.0000
  O   O15       1.0  0.68122  0.66364  0.13617  1.0000
  O   O16       1.0  0.65335  0.62403  0.09663  1.0000
  H   H16       1.0  0.66609  0.64201  0.04577  1.0000
  Ni  Ni2       1.0  0.74775  0.75816  0.00240  1.0000
  C   C65       1.0  0.28939  0.69182  0.60386  1.0000
  C   C66       1.0  0.31012  0.66238  0.61156  1.0000
  C   C67       1.0  0.32532  0.64069  0.58998  1.0000
  C   C68       1.0  0.31985  0.64833  0.56059  1.0000
  C   C69       1.0  0.29917  0.67768  0.55392  1.0000
  C   C70       1.0  0.28465  0.69845  0.57456  1.0000
  C   C71       1.0  0.26583  0.72513  0.56080  1.0000
  N   N17       1.0  0.26838  0.72133  0.53096  1.0000
  C   C72       1.0  0.28942  0.69139  0.52726  1.0000
  N   N18       1.0  0.29972  0.67658  0.50237  1.0000
  C   C73       1.0  0.28935  0.69127  0.47748  1.0000
  N   N19       1.0  0.26830  0.72121  0.47378  1.0000
  C   C74       1.0  0.26571  0.72495  0.44393  1.0000
  C   C75       1.0  0.28450  0.69821  0.43018  1.0000
  C   C76       1.0  0.29905  0.67749  0.45081  1.0000
  N   N20       1.0  0.22791  0.77845  0.47377  1.0000
  C   C77       1.0  0.23058  0.77482  0.44393  1.0000
  N   N21       1.0  0.24820  0.74997  0.42925  1.0000
  C   C78       1.0  0.21169  0.80143  0.43017  1.0000
  C   C79       1.0  0.19701  0.82196  0.45081  1.0000
  C   C80       1.0  0.20672  0.80818  0.47747  1.0000
  C   C81       1.0  0.31974  0.64815  0.44414  1.0000
  C   C82       1.0  0.32517  0.64048  0.41475  1.0000
  C   C83       1.0  0.30991  0.66209  0.39318  1.0000
  C   C84       1.0  0.28919  0.69154  0.40088  1.0000
  C   C85       1.0  0.17626  0.85121  0.44415  1.0000
  C   C86       1.0  0.17088  0.85898  0.41477  1.0000
  C   C87       1.0  0.18620  0.83748  0.39319  1.0000
  C   C88       1.0  0.20700  0.80814  0.40088  1.0000
  N   N22       1.0  0.22789  0.77843  0.53095  1.0000
  C   C89       1.0  0.20669  0.80815  0.52725  1.0000
  N   N23       1.0  0.19625  0.82273  0.50236  1.0000
  C   C90       1.0  0.19697  0.82192  0.55390  1.0000
  C   C91       1.0  0.21166  0.80142  0.57455  1.0000
  C   C92       1.0  0.23057  0.77484  0.56080  1.0000
  C   C93       1.0  0.20694  0.80810  0.60384  1.0000
  C   C94       1.0  0.18607  0.83736  0.61152  1.0000
  C   C95       1.0  0.17075  0.85885  0.58992  1.0000
  C   C96       1.0  0.17619  0.85114  0.56055  1.0000
  N   N24       1.0  0.24827  0.75009  0.57548  1.0000
  H   H17       1.0  0.27896  0.70669  0.61818  1.0000
  O   O17       1.0  0.31485  0.65574  0.63617  1.0000
  O   O18       1.0  0.34270  0.61604  0.59665  1.0000
  H   H18       1.0  0.32993  0.63393  0.54579  1.0000
  H   H19       1.0  0.32986  0.63380  0.45893  1.0000
  O   O19       1.0  0.34257  0.61585  0.40807  1.0000
  O   O20       1.0  0.31459  0.65538  0.36856  1.0000
  H   H20       1.0  0.27874  0.70637  0.38656  1.0000
  H   H21       1.0  0.16608  0.86547  0.45895  1.0000
  O   O21       1.0  0.15347  0.88360  0.40810  1.0000
  O   O22       1.0  0.18152  0.84421  0.36857  1.0000
  H   H22       1.0  0.21751  0.79339  0.38655  1.0000
  H   H23       1.0  0.21745  0.79337  0.61817  1.0000
  O   O23       1.0  0.18132  0.84400  0.63613  1.0000
  O   O24       1.0  0.15330  0.88341  0.59659  1.0000
  H   H24       1.0  0.16602  0.86539  0.54574  1.0000
  Ni  Ni3       1.0  0.24815  0.74990  0.50237  1.0000
  C   C97       1.0  0.71080  0.31598  0.60387  1.0000
  C   C98       1.0  0.69006  0.34542  0.61157  1.0000
  C   C99       1.0  0.67486  0.36710  0.58999  1.0000
  C   C100      1.0  0.68033  0.35946  0.56060  1.0000
  C   C101      1.0  0.70101  0.33011  0.55393  1.0000
  C   C102      1.0  0.71553  0.30935  0.57457  1.0000
  C   C103      1.0  0.73436  0.28266  0.56082  1.0000
  N   N25       1.0  0.73180  0.28646  0.53097  1.0000
  C   C104      1.0  0.71076  0.31639  0.52727  1.0000
  N   N26       1.0  0.70047  0.33120  0.50238  1.0000
  C   C105      1.0  0.71083  0.31650  0.47749  1.0000
  N   N27       1.0  0.73188  0.28657  0.47379  1.0000
  C   C106      1.0  0.73447  0.28282  0.44395  1.0000
  C   C107      1.0  0.71568  0.30956  0.43019  1.0000
  C   C108      1.0  0.70113  0.33028  0.45083  1.0000
  N   N28       1.0  0.77228  0.22933  0.47379  1.0000
  C   C109      1.0  0.76961  0.23295  0.44394  1.0000
  N   N29       1.0  0.75198  0.25780  0.42926  1.0000
  C   C110      1.0  0.78850  0.20634  0.43019  1.0000
  C   C111      1.0  0.80317  0.18581  0.45083  1.0000
  C   C112      1.0  0.79347  0.19960  0.47749  1.0000
  C   C113      1.0  0.68044  0.35961  0.44415  1.0000
  C   C114      1.0  0.67501  0.36729  0.41476  1.0000
  C   C115      1.0  0.69027  0.34567  0.39319  1.0000
  C   C116      1.0  0.71099  0.31622  0.40089  1.0000
  C   C117      1.0  0.82392  0.15656  0.44417  1.0000
  C   C118      1.0  0.82931  0.14879  0.41479  1.0000
  C   C119      1.0  0.81398  0.17028  0.39321  1.0000
  C   C120      1.0  0.79318  0.19962  0.40089  1.0000
  N   N30       1.0  0.77230  0.22936  0.53097  1.0000
  C   C121      1.0  0.79349  0.19964  0.52726  1.0000
  N   N31       1.0  0.80393  0.18505  0.50238  1.0000
  C   C122      1.0  0.80321  0.18587  0.55391  1.0000
  C   C123      1.0  0.78852  0.20638  0.57456  1.0000
  C   C124      1.0  0.76961  0.23296  0.56081  1.0000
  C   C125      1.0  0.79324  0.19971  0.60386  1.0000
  C   C126      1.0  0.81411  0.17044  0.61153  1.0000
  C   C127      1.0  0.82943  0.14895  0.58994  1.0000
  C   C128      1.0  0.82399  0.15666  0.56056  1.0000
  N   N32       1.0  0.75191  0.25771  0.57549  1.0000
  H   H25       1.0  0.72122  0.30111  0.61820  1.0000
  O   O25       1.0  0.68533  0.35207  0.63618  1.0000
  O   O26       1.0  0.65748  0.39176  0.59666  1.0000
  H   H26       1.0  0.67025  0.37386  0.54580  1.0000
  H   H27       1.0  0.67032  0.37398  0.45894  1.0000
  O   O27       1.0  0.65761  0.39191  0.40808  1.0000
  O   O28       1.0  0.68559  0.35238  0.36857  1.0000
  H   H28       1.0  0.72144  0.30139  0.38657  1.0000
  H   H29       1.0  0.83410  0.14231  0.45897  1.0000
  O   O29       1.0  0.84671  0.12417  0.40812  1.0000
  O   O30       1.0  0.81866  0.16355  0.36859  1.0000
  H   H30       1.0  0.78267  0.21437  0.38656  1.0000
  H   H31       1.0  0.78273  0.21444  0.61819  1.0000
  O   O31       1.0  0.81887  0.16381  0.63615  1.0000
  O   O32       1.0  0.84688  0.12439  0.59661  1.0000
  H   H32       1.0  0.83417  0.14241  0.54576  1.0000
  Ni  Ni4       1.0  0.75203  0.25788  0.50238  1.0000
  Fe  Fe1       1.0  0.07320  0.00249  0.25235  1.0000
  Fe  Fe2       1.0  0.92680  0.00497  0.25240  1.0000
  Fe  Fe3       1.0  0.92679  0.00492  0.75233  1.0000
  Fe  Fe4       1.0  0.07318  0.00255  0.75235  1.0000
  Fe  Fe5       1.0  0.57320  0.50490  0.25234  1.0000
  Fe  Fe6       1.0  0.42678  0.50245  0.25238  1.0000
  Fe  Fe7       1.0  0.42681  0.50257  0.75238  1.0000
  Fe  Fe8       1.0  0.57320  0.50497  0.75241  1.0000
  C   C129      1.0  0.09289  0.02929  0.20375  1.0000
  C   C130      1.0  0.10815  0.05038  0.22510  1.0000
  C   C131      1.0  0.12917  0.07900  0.21733  1.0000
  C   C132      1.0  0.13498  0.08661  0.18818  1.0000
  C   C133      1.0  0.11968  0.06548  0.16674  1.0000
  C   C134      1.0  0.09867  0.03686  0.17459  1.0000
  O   O33       1.0  0.07227  0.00121  0.21137  1.0000
  O   O34       1.0  0.10249  0.04296  0.25369  1.0000
  H   H33       1.0  0.14045  0.09457  0.23318  1.0000
  O   O35       1.0  0.15565  0.11476  0.18064  1.0000
  O   O36       1.0  0.12527  0.07280  0.13805  1.0000
  H   H34       1.0  0.08737  0.02126  0.15877  1.0000
  Cu  Cu1       1.0  0.15620  0.11505  0.13769  1.0000
  C   C135      1.0  0.89184  0.95720  0.22509  1.0000
  C   C136      1.0  0.90713  0.97828  0.20375  1.0000
  C   C137      1.0  0.90139  0.97084  0.17458  1.0000
  C   C138      1.0  0.88035  0.94229  0.16667  1.0000
  C   C139      1.0  0.86500  0.92112  0.18806  1.0000
  C   C140      1.0  0.87080  0.92864  0.21723  1.0000
  O   O37       1.0  0.89746  0.96450  0.25371  1.0000
  O   O38       1.0  0.92776  0.00628  0.21146  1.0000
  H   H35       1.0  0.91273  0.98648  0.15881  1.0000
  O   O39       1.0  0.87479  0.93507  0.13799  1.0000
  O   O40       1.0  0.84430  0.89302  0.18046  1.0000
  H   H36       1.0  0.85948  0.91302  0.23303  1.0000
  Cu  Cu2       1.0  0.84384  0.89293  0.13746  1.0000
  C   C141      1.0  0.10707  0.95317  0.27966  1.0000
  C   C142      1.0  0.09214  0.97477  0.30100  1.0000
  C   C143      1.0  0.09745  0.96673  0.33018  1.0000
  C   C144      1.0  0.11770  0.93708  0.33809  1.0000
  C   C145      1.0  0.13270  0.91540  0.31670  1.0000
  C   C146      1.0  0.12734  0.92352  0.28753  1.0000
  O   O41       1.0  0.10186  0.96106  0.25104  1.0000
  O   O42       1.0  0.07227  0.00385  0.29329  1.0000
  H   H37       1.0  0.08637  0.98275  0.34594  1.0000
  O   O43       1.0  0.12285  0.92928  0.36677  1.0000
  O   O44       1.0  0.15264  0.88623  0.32431  1.0000
  H   H38       1.0  0.13840  0.90753  0.27174  1.0000
  Cu  Cu3       1.0  0.15274  0.88565  0.36731  1.0000
  C   C147      1.0  0.90786  0.03282  0.30100  1.0000
  C   C148      1.0  0.89294  0.05440  0.27964  1.0000
  C   C149      1.0  0.87270  0.08412  0.28741  1.0000
  C   C150      1.0  0.86732  0.09233  0.31656  1.0000
  C   C151      1.0  0.88226  0.07070  0.33801  1.0000
  C   C152      1.0  0.90250  0.04099  0.33016  1.0000
  O   O45       1.0  0.92771  0.00366  0.29338  1.0000
  O   O46       1.0  0.89819  0.04639  0.25105  1.0000
  H   H39       1.0  0.86169  0.10006  0.27157  1.0000
  O   O47       1.0  0.84742  0.12156  0.32410  1.0000
  O   O48       1.0  0.87709  0.07861  0.36669  1.0000
  H   H40       1.0  0.91354  0.02501  0.34598  1.0000
  Cu  Cu4       1.0  0.84721  0.12235  0.36706  1.0000
  C   C153      1.0  0.89186  0.95711  0.77965  1.0000
  C   C154      1.0  0.90714  0.97820  0.80099  1.0000
  C   C155      1.0  0.90144  0.97073  0.83016  1.0000
  C   C156      1.0  0.88043  0.94214  0.83807  1.0000
  C   C157      1.0  0.86508  0.92096  0.81669  1.0000
  C   C158      1.0  0.87084  0.92851  0.78752  1.0000
  O   O49       1.0  0.89745  0.96444  0.75102  1.0000
  O   O50       1.0  0.92775  0.00624  0.79327  1.0000
  H   H41       1.0  0.91278  0.98637  0.84592  1.0000
  O   O51       1.0  0.87489  0.93489  0.86676  1.0000
  O   O52       1.0  0.84440  0.89283  0.82430  1.0000
  H   H42       1.0  0.85952  0.91289  0.77172  1.0000
  Cu  Cu5       1.0  0.84398  0.89271  0.86730  1.0000
  C   C159      1.0  0.09284  0.02939  0.80097  1.0000
  C   C160      1.0  0.10811  0.05048  0.77961  1.0000
  C   C161      1.0  0.12910  0.07914  0.78739  1.0000
  C   C162      1.0  0.13488  0.08678  0.81654  1.0000
  C   C163      1.0  0.11958  0.06564  0.83799  1.0000
  C   C164      1.0  0.09859  0.03699  0.83013  1.0000
  O   O53       1.0  0.07225  0.00127  0.79334  1.0000
  O   O54       1.0  0.10248  0.04303  0.75102  1.0000
  H   H43       1.0  0.14038  0.09472  0.77155  1.0000
  O   O55       1.0  0.15552  0.11496  0.82409  1.0000
  O   O56       1.0  0.12514  0.07299  0.86667  1.0000
  H   H44       1.0  0.08729  0.02138  0.84594  1.0000
  Cu  Cu6       1.0  0.15604  0.11528  0.86705  1.0000
  C   C165      1.0  0.90788  0.03281  0.70372  1.0000
  C   C166      1.0  0.89296  0.05439  0.72509  1.0000
  C   C167      1.0  0.87275  0.08416  0.71732  1.0000
  C   C168      1.0  0.86741  0.09242  0.68817  1.0000
  C   C169      1.0  0.88235  0.07079  0.66672  1.0000
  C   C170      1.0  0.90256  0.04103  0.67457  1.0000
  O   O57       1.0  0.92770  0.00361  0.71134  1.0000
  O   O58       1.0  0.89818  0.04634  0.75367  1.0000
  H   H45       1.0  0.86174  0.10010  0.73317  1.0000
  O   O59       1.0  0.84753  0.12169  0.68063  1.0000
  O   O60       1.0  0.87721  0.07874  0.63804  1.0000
  H   H46       1.0  0.91359  0.02506  0.65875  1.0000
  Cu  Cu7       1.0  0.84737  0.12253  0.63768  1.0000
  C   C171      1.0  0.10703  0.95319  0.72503  1.0000
  C   C172      1.0  0.09209  0.97479  0.70369  1.0000
  C   C173      1.0  0.09737  0.96671  0.67452  1.0000
  C   C174      1.0  0.11760  0.93702  0.66661  1.0000
  C   C175      1.0  0.13260  0.91534  0.68800  1.0000
  C   C176      1.0  0.12726  0.92350  0.71717  1.0000
  O   O61       1.0  0.10184  0.96112  0.75366  1.0000
  O   O62       1.0  0.07225  0.00390  0.71141  1.0000
  H   H47       1.0  0.08629  0.98273  0.65876  1.0000
  O   O63       1.0  0.12273  0.92918  0.63793  1.0000
  O   O64       1.0  0.15251  0.88613  0.68039  1.0000
  H   H48       1.0  0.13832  0.90751  0.73296  1.0000
  Cu  Cu8       1.0  0.15258  0.88550  0.63739  1.0000
  C   C177      1.0  0.59214  0.53275  0.20374  1.0000
  C   C178      1.0  0.60705  0.55434  0.22510  1.0000
  C   C179      1.0  0.62729  0.58407  0.21734  1.0000
  C   C180      1.0  0.63266  0.59229  0.18819  1.0000
  C   C181      1.0  0.61772  0.57066  0.16674  1.0000
  C   C182      1.0  0.59749  0.54093  0.17458  1.0000
  O   O65       1.0  0.57229  0.50359  0.21136  1.0000
  O   O66       1.0  0.60180  0.54632  0.25369  1.0000
  H   H49       1.0  0.63830  0.60001  0.23318  1.0000
  O   O67       1.0  0.65256  0.62152  0.18065  1.0000
  O   O68       1.0  0.62290  0.57857  0.13805  1.0000
  H   H50       1.0  0.58646  0.52496  0.15877  1.0000
  Cu  Cu9       1.0  0.65277  0.62232  0.13769  1.0000
  C   C183      1.0  0.39292  0.45315  0.22509  1.0000
  C   C184      1.0  0.40786  0.47474  0.20375  1.0000
  C   C185      1.0  0.40255  0.46669  0.17457  1.0000
  C   C186      1.0  0.38229  0.43704  0.16667  1.0000
  C   C187      1.0  0.36729  0.41537  0.18805  1.0000
  C   C188      1.0  0.37265  0.42349  0.21722  1.0000
  O   O69       1.0  0.39813  0.46104  0.25371  1.0000
  O   O70       1.0  0.42773  0.50381  0.21146  1.0000
  H   H51       1.0  0.41363  0.48271  0.15881  1.0000
  O   O71       1.0  0.37714  0.42924  0.13798  1.0000
  O   O72       1.0  0.34735  0.38619  0.18045  1.0000
  H   H52       1.0  0.36159  0.40751  0.23302  1.0000
  Cu  Cu10      1.0  0.34725  0.38560  0.13745  1.0000
  C   C189      1.0  0.60816  0.45714  0.27965  1.0000
  C   C190      1.0  0.59287  0.47823  0.30099  1.0000
  C   C191      1.0  0.59860  0.47079  0.33017  1.0000
  C   C192      1.0  0.61964  0.44225  0.33807  1.0000
  C   C193      1.0  0.63500  0.42107  0.31669  1.0000
  C   C194      1.0  0.62921  0.42859  0.28752  1.0000
  O   O73       1.0  0.60254  0.46443  0.25103  1.0000
  O   O74       1.0  0.57224  0.50622  0.29328  1.0000
  H   H53       1.0  0.58726  0.48643  0.34593  1.0000
  O   O75       1.0  0.62520  0.43504  0.36676  1.0000
  O   O76       1.0  0.65570  0.39299  0.32430  1.0000
  H   H54       1.0  0.64053  0.41297  0.27173  1.0000
  Cu  Cu11      1.0  0.65616  0.39290  0.36730  1.0000
  C   C195      1.0  0.40710  0.52926  0.30098  1.0000
  C   C196      1.0  0.39184  0.55035  0.27962  1.0000
  C   C197      1.0  0.37082  0.57898  0.28738  1.0000
  C   C198      1.0  0.36501  0.58660  0.31653  1.0000
  C   C199      1.0  0.38031  0.56548  0.33798  1.0000
  C   C200      1.0  0.40132  0.53685  0.33014  1.0000
  O   O77       1.0  0.42771  0.50117  0.29336  1.0000
  O   O78       1.0  0.39750  0.54291  0.25103  1.0000
  H   H55       1.0  0.35955  0.59455  0.27153  1.0000
  O   O79       1.0  0.34435  0.61476  0.32406  1.0000
  O   O80       1.0  0.37472  0.57281  0.36666  1.0000
  H   H56       1.0  0.41261  0.52124  0.34596  1.0000
  Cu  Cu12      1.0  0.34379  0.61506  0.36702  1.0000
  C   C201      1.0  0.39297  0.45321  0.77968  1.0000
  C   C202      1.0  0.40790  0.47480  0.80103  1.0000
  C   C203      1.0  0.40262  0.46671  0.83020  1.0000
  C   C204      1.0  0.38239  0.43701  0.83810  1.0000
  C   C205      1.0  0.36740  0.41533  0.81672  1.0000
  C   C206      1.0  0.37274  0.42350  0.78754  1.0000
  O   O81       1.0  0.39815  0.46114  0.75106  1.0000
  O   O82       1.0  0.42774  0.50392  0.79332  1.0000
  H   H57       1.0  0.41369  0.48273  0.84596  1.0000
  O   O83       1.0  0.37727  0.42917  0.86679  1.0000
  O   O84       1.0  0.34750  0.38611  0.82432  1.0000
  H   H58       1.0  0.36168  0.40752  0.77175  1.0000
  Cu  Cu13      1.0  0.34742  0.38548  0.86732  1.0000
  C   C207      1.0  0.60699  0.55439  0.77972  1.0000
  C   C208      1.0  0.59207  0.53279  0.80107  1.0000
  C   C209      1.0  0.59732  0.54091  0.83024  1.0000
  C   C210      1.0  0.61752  0.57065  0.83814  1.0000
  C   C211      1.0  0.63251  0.59233  0.81675  1.0000
  C   C212      1.0  0.62720  0.58413  0.78758  1.0000
  O   O85       1.0  0.60184  0.54642  0.75110  1.0000
  O   O86       1.0  0.57226  0.50362  0.79336  1.0000
  H   H59       1.0  0.58625  0.52489  0.84600  1.0000
  O   O87       1.0  0.62262  0.57853  0.86683  1.0000
  O   O88       1.0  0.65238  0.62159  0.82436  1.0000
  H   H60       1.0  0.63825  0.60013  0.77179  1.0000
  Cu  Cu14      1.0  0.65243  0.62227  0.86735  1.0000
  C   C213      1.0  0.40715  0.52940  0.70378  1.0000
  C   C214      1.0  0.39188  0.55049  0.72514  1.0000
  C   C215      1.0  0.37089  0.57914  0.71736  1.0000
  C   C216      1.0  0.36511  0.58679  0.68821  1.0000
  C   C217      1.0  0.38042  0.56566  0.66677  1.0000
  C   C218      1.0  0.40141  0.53701  0.67462  1.0000
  O   O89       1.0  0.42775  0.50128  0.71140  1.0000
  O   O90       1.0  0.39752  0.54303  0.75373  1.0000
  H   H61       1.0  0.35962  0.59472  0.73321  1.0000
  O   O91       1.0  0.34447  0.61497  0.68067  1.0000
  O   O92       1.0  0.37486  0.57302  0.63808  1.0000
  H   H62       1.0  0.41271  0.52140  0.65880  1.0000
  Cu  Cu15      1.0  0.34395  0.61531  0.63772  1.0000
  C   C219      1.0  0.59289  0.47818  0.70381  1.0000
  C   C220      1.0  0.60817  0.45710  0.72516  1.0000
  C   C221      1.0  0.62919  0.42849  0.71739  1.0000
  C   C222      1.0  0.63498  0.42088  0.68823  1.0000
  C   C223      1.0  0.61968  0.44200  0.66679  1.0000
  C   C224      1.0  0.59866  0.47062  0.67465  1.0000
  O   O93       1.0  0.57227  0.50626  0.71144  1.0000
  O   O94       1.0  0.60251  0.46453  0.75376  1.0000
  H   H63       1.0  0.64047  0.41292  0.73323  1.0000
  O   O95       1.0  0.65565  0.39274  0.68069  1.0000
  O   O96       1.0  0.62526  0.43469  0.63811  1.0000
  H   H64       1.0  0.58735  0.48622  0.65884  1.0000
  Cu  Cu16      1.0  0.65620  0.39245  0.63773  1.0000
  C   C225      1.0  0.99990  0.96489  0.25237  1.0000
  C   C226      1.0  0.97604  0.98471  0.25239  1.0000
  C   C227      1.0  0.97637  0.02354  0.25239  1.0000
  C   C228      1.0  0.00010  0.04255  0.25238  1.0000
  C   C229      1.0  0.02396  0.02272  0.25237  1.0000
  C   C230      1.0  0.02363  0.98389  0.25236  1.0000
  H   H65       1.0  0.99990  0.93576  0.25237  1.0000
  O   O97       1.0  0.95448  0.96760  0.25239  1.0000
  O   O98       1.0  0.95511  0.04138  0.25240  1.0000
  H   H66       1.0  0.00010  0.07167  0.25238  1.0000
  O   O99       1.0  0.04553  0.03983  0.25236  1.0000
  O   O100      1.0  0.04489  0.96605  0.25235  1.0000
  C   C231      1.0  0.99990  0.96489  0.75233  1.0000
  C   C232      1.0  0.02362  0.98393  0.75234  1.0000
  C   C233      1.0  0.02394  0.02276  0.75235  1.0000
  C   C234      1.0  0.00010  0.04255  0.75234  1.0000
  C   C235      1.0  0.97635  0.02352  0.75233  1.0000
  C   C236      1.0  0.97604  0.98469  0.75233  1.0000
  H   H67       1.0  0.99990  0.93577  0.75233  1.0000
  O   O101      1.0  0.04490  0.96611  0.75235  1.0000
  O   O102      1.0  0.04549  0.03989  0.75235  1.0000
  H   H68       1.0  0.00010  0.07167  0.75234  1.0000
  O   O103      1.0  0.95507  0.04133  0.75233  1.0000
  O   O104      1.0  0.95448  0.96756  0.75232  1.0000
  C   C237      1.0  0.50032  0.46483  0.25236  1.0000
  C   C238      1.0  0.47636  0.48384  0.25237  1.0000
  C   C239      1.0  0.47603  0.52267  0.25237  1.0000
  C   C240      1.0  0.49966  0.54249  0.25236  1.0000
  C   C241      1.0  0.52362  0.52347  0.25235  1.0000
  C   C242      1.0  0.52395  0.48464  0.25235  1.0000
  H   H69       1.0  0.50056  0.43570  0.25235  1.0000
  O   O105      1.0  0.45509  0.46601  0.25238  1.0000
  O   O106      1.0  0.45447  0.53978  0.25239  1.0000
  H   H70       1.0  0.49942  0.57161  0.25237  1.0000
  O   O107      1.0  0.54489  0.54131  0.25234  1.0000
  O   O108      1.0  0.54551  0.46753  0.25234  1.0000
  C   C243      1.0  0.50032  0.46493  0.75239  1.0000
  C   C244      1.0  0.52396  0.48473  0.75240  1.0000
  C   C245      1.0  0.52364  0.52356  0.75241  1.0000
  C   C246      1.0  0.49968  0.54259  0.75240  1.0000
  C   C247      1.0  0.47605  0.52278  0.75239  1.0000
  C   C248      1.0  0.47637  0.48395  0.75239  1.0000
  H   H71       1.0  0.50056  0.43581  0.75239  1.0000
  O   O109      1.0  0.54551  0.46761  0.75241  1.0000
  O   O110      1.0  0.54491  0.54139  0.75241  1.0000
  H   H72       1.0  0.49945  0.57171  0.75240  1.0000
  O   O111      1.0  0.45449  0.53991  0.75239  1.0000
  O   O112      1.0  0.45510  0.46613  0.75238  1.0000
