data_image0
_chemical_formula_structural       C7NCNCNC3NCNC11NCNC7NHO2H2O2H2O2H2O2HNiC7NCNCNC3NCNC11NCNC7NHO2H2O2H2O2H2O2HNiC7NCNCNC3NCNC11NCNC7NHO2H2O2H2O2H2O2HNiC7NCNCNC3NCNC11NCNC7NHO2H2O2H2O2H2O2HNiFe8C6HO2HO2C6HO2HO2C6HO2HO2C6HO2HO2
_chemical_formula_sum              "C152 N32 H40 O48 Ni4 Fe8"
_cell_length_a       34.2437
_cell_length_b       19.3188
_cell_length_c       27.3166
_cell_angle_alpha    89.9996
_cell_angle_beta     89.9997
_cell_angle_gamma    90.0027

_space_group_name_H-M_alt    "P 1"
_space_group_IT_number       1

loop_
  _space_group_symop_operation_xyz
  'x, y, z'

loop_
  _atom_site_type_symbol
  _atom_site_label
  _atom_site_symmetry_multiplicity
  _atom_site_fract_x
  _atom_site_fract_y
  _atom_site_fract_z
  _atom_site_occupancy
  C   C1        1.0  0.35731  0.43938  0.10962  1.0000
  C   C2        1.0  0.36534  0.45386  0.16445  1.0000
  C   C3        1.0  0.34252  0.41376  0.20473  1.0000
  C   C4        1.0  0.31155  0.35902  0.19038  1.0000
  C   C5        1.0  0.30459  0.34647  0.13572  1.0000
  C   C6        1.0  0.32644  0.38477  0.09720  1.0000
  C   C7        1.0  0.31199  0.35904  0.04746  1.0000
  N   N1        1.0  0.28049  0.30353  0.05437  1.0000
  C   C8        1.0  0.27649  0.29679  0.11006  1.0000
  N   N2        1.0  0.25017  0.25058  0.13745  1.0000
  C   C9        1.0  0.22399  0.20410  0.11006  1.0000
  N   N3        1.0  0.22019  0.19703  0.05437  1.0000
  C   C10       1.0  0.18882  0.14126  0.04746  1.0000
  C   C11       1.0  0.17425  0.11575  0.09719  1.0000
  C   C12       1.0  0.19590  0.15439  0.13572  1.0000
  N   N4        1.0  0.22024  0.19692  0.94767  1.0000
  C   C13       1.0  0.18891  0.14109  0.95457  1.0000
  N   N5        1.0  0.17351  0.11362  0.00101  1.0000
  C   C14       1.0  0.17438  0.11552  0.90483  1.0000
  C   C15       1.0  0.19599  0.15425  0.86631  1.0000
  C   C16       1.0  0.22402  0.20405  0.89198  1.0000
  C   C17       1.0  0.18882  0.14201  0.19038  1.0000
  C   C18       1.0  0.15790  0.08717  0.20471  1.0000
  C   C19       1.0  0.13521  0.04687  0.16442  1.0000
  C   C20       1.0  0.14340  0.06111  0.10960  1.0000
  C   C21       1.0  0.18893  0.14191  0.81164  1.0000
  C   C22       1.0  0.15810  0.08694  0.79729  1.0000
  C   C23       1.0  0.13548  0.04649  0.83756  1.0000
  C   C24       1.0  0.14360  0.06077  0.89238  1.0000
  N   N6        1.0  0.28040  0.30367  0.94767  1.0000
  C   C25       1.0  0.27637  0.29699  0.89198  1.0000
  N   N7        1.0  0.25008  0.25072  0.86459  1.0000
  C   C26       1.0  0.30443  0.34670  0.86631  1.0000
  C   C27       1.0  0.32630  0.38499  0.90482  1.0000
  C   C28       1.0  0.31191  0.35917  0.95457  1.0000
  C   C29       1.0  0.35713  0.43965  0.89237  1.0000
  C   C30       1.0  0.36508  0.45421  0.83753  1.0000
  C   C31       1.0  0.34227  0.41407  0.79727  1.0000
  C   C32       1.0  0.31134  0.35927  0.81164  1.0000
  N   N8        1.0  0.32750  0.38630  0.00101  1.0000
  H   H1        1.0  0.37245  0.46600  0.08200  1.0000
  O   O1        1.0  0.39127  0.49976  0.17689  1.0000
  O   O2        1.0  0.34951  0.42629  0.25066  1.0000
  H   H2        1.0  0.29590  0.33153  0.21712  1.0000
  H   H3        1.0  0.20436  0.16966  0.21713  1.0000
  O   O3        1.0  0.15085  0.07472  0.25064  1.0000
  O   O4        1.0  0.10925  0.00102  0.17684  1.0000
  H   H4        1.0  0.12836  0.03434  0.08197  1.0000
  H   H5        1.0  0.20444  0.16966  0.78491  1.0000
  O   O5        1.0  0.15109  0.07448  0.75136  1.0000
  O   O6        1.0  0.10963  0.00010  0.82511  1.0000
  H   H6        1.0  0.12858  0.03392  0.92000  1.0000
  H   H7        1.0  0.37228  0.46627  0.91998  1.0000
  O   O7        1.0  0.39094  0.50022  0.82507  1.0000
  O   O8        1.0  0.34922  0.42662  0.75133  1.0000
  H   H8        1.0  0.29568  0.33177  0.78492  1.0000
  Ni  Ni1       1.0  0.25038  0.25021  0.00102  1.0000
  C   C33       1.0  0.85628  0.94190  0.89237  1.0000
  C   C34       1.0  0.86444  0.95614  0.83755  1.0000
  C   C35       1.0  0.84183  0.91569  0.79726  1.0000
  C   C36       1.0  0.81095  0.86078  0.81161  1.0000
  C   C37       1.0  0.80387  0.84844  0.86627  1.0000
  C   C38       1.0  0.82547  0.88717  0.90480  1.0000
  C   C39       1.0  0.81096  0.86156  0.95453  1.0000
  N   N9        1.0  0.77965  0.80571  0.94762  1.0000
  C   C40       1.0  0.77585  0.79863  0.89193  1.0000
  N   N10       1.0  0.74978  0.75195  0.86454  1.0000
  C   C41       1.0  0.72357  0.70553  0.89192  1.0000
  N   N11       1.0  0.71958  0.69880  0.94762  1.0000
  C   C42       1.0  0.68812  0.64319  0.95453  1.0000
  C   C43       1.0  0.67373  0.61735  0.90480  1.0000
  C   C44       1.0  0.69553  0.65573  0.86626  1.0000
  N   N12       1.0  0.71951  0.69889  0.05432  1.0000
  C   C45       1.0  0.68802  0.64335  0.04742  1.0000
  N   N13       1.0  0.67253  0.61603  0.00010  1.0000
  C   C46       1.0  0.67360  0.61758  0.09716  1.0000
  C   C47       1.0  0.69545  0.65590  0.13568  1.0000
  C   C48       1.0  0.72354  0.70558  0.11001  1.0000
  C   C49       1.0  0.68855  0.64319  0.81160  1.0000
  C   C50       1.0  0.65762  0.58837  0.79728  1.0000
  C   C51       1.0  0.63489  0.54815  0.83757  1.0000
  C   C52       1.0  0.64291  0.56266  0.89239  1.0000
  C   C53       1.0  0.68848  0.64338  0.19034  1.0000
  C   C54       1.0  0.65748  0.58871  0.20470  1.0000
  C   C55       1.0  0.63467  0.54861  0.16443  1.0000
  C   C56       1.0  0.64272  0.56301  0.10960  1.0000
  N   N14       1.0  0.77972  0.80554  0.05432  1.0000
  C   C57       1.0  0.77596  0.79840  0.11001  1.0000
  N   N15       1.0  0.74986  0.75179  0.13740  1.0000
  C   C58       1.0  0.80400  0.84814  0.13568  1.0000
  C   C59       1.0  0.82559  0.88691  0.09717  1.0000
  C   C60       1.0  0.81103  0.86141  0.04742  1.0000
  C   C61       1.0  0.85643  0.94157  0.10963  1.0000
  C   C62       1.0  0.86464  0.95567  0.16446  1.0000
  C   C63       1.0  0.84200  0.91522  0.20472  1.0000
  C   C64       1.0  0.81108  0.86039  0.19035  1.0000
  N   N16       1.0  0.82634  0.88906  0.00010  1.0000
  H   H9        1.0  0.87129  0.96874  0.92000  1.0000
  O   O9        1.0  0.89033  0.00211  0.82510  1.0000
  O   O10       1.0  0.84890  0.92809  0.75133  1.0000
  H   H10       1.0  0.79544  0.83303  0.78487  1.0000
  H   H11       1.0  0.70414  0.67075  0.78486  1.0000
  O   O11       1.0  0.65059  0.57588  0.75135  1.0000
  O   O12       1.0  0.60902  0.50212  0.82514  1.0000
  H   H12       1.0  0.62781  0.53599  0.92002  1.0000
  H   H13       1.0  0.70414  0.67086  0.21707  1.0000
  O   O13       1.0  0.65045  0.57628  0.25063  1.0000
  O   O14       1.0  0.60870  0.50278  0.17688  1.0000
  H   H14       1.0  0.62758  0.53638  0.08199  1.0000
  H   H15       1.0  0.87144  0.96844  0.08202  1.0000
  O   O15       1.0  0.89059  0.00151  0.17692  1.0000
  O   O16       1.0  0.84908  0.92755  0.25066  1.0000
  H   H16       1.0  0.79557  0.83263  0.21707  1.0000
  Ni  Ni2       1.0  0.74957  0.75232  0.00010  1.0000
  C   C65       1.0  0.14320  0.94027  0.60962  1.0000
  C   C66       1.0  0.13503  0.95451  0.66444  1.0000
  C   C67       1.0  0.15765  0.91407  0.70473  1.0000
  C   C68       1.0  0.18853  0.85916  0.69038  1.0000
  C   C69       1.0  0.19561  0.84682  0.63572  1.0000
  C   C70       1.0  0.17400  0.88555  0.59719  1.0000
  C   C71       1.0  0.18852  0.85994  0.54745  1.0000
  N   N17       1.0  0.21983  0.80410  0.55437  1.0000
  C   C72       1.0  0.22363  0.79701  0.61006  1.0000
  N   N18       1.0  0.24969  0.75034  0.63745  1.0000
  C   C73       1.0  0.27591  0.70393  0.61006  1.0000
  N   N19       1.0  0.27990  0.69720  0.55437  1.0000
  C   C74       1.0  0.31135  0.64159  0.54745  1.0000
  C   C75       1.0  0.32574  0.61576  0.59719  1.0000
  C   C76       1.0  0.30395  0.65414  0.63572  1.0000
  N   N20       1.0  0.27996  0.69730  0.44767  1.0000
  C   C77       1.0  0.31145  0.64176  0.45457  1.0000
  N   N21       1.0  0.32694  0.61444  0.50101  1.0000
  C   C78       1.0  0.32587  0.61600  0.40482  1.0000
  C   C79       1.0  0.30403  0.65431  0.36630  1.0000
  C   C80       1.0  0.27594  0.70399  0.39198  1.0000
  C   C81       1.0  0.31093  0.64159  0.69038  1.0000
  C   C82       1.0  0.34186  0.58677  0.70471  1.0000
  C   C83       1.0  0.36459  0.54656  0.66441  1.0000
  C   C84       1.0  0.35656  0.56107  0.60960  1.0000
  C   C85       1.0  0.31099  0.64179  0.31164  1.0000
  C   C86       1.0  0.34199  0.58713  0.29728  1.0000
  C   C87       1.0  0.36481  0.54703  0.33756  1.0000
  C   C88       1.0  0.35675  0.56143  0.39238  1.0000
  N   N22       1.0  0.21975  0.80394  0.44767  1.0000
  C   C89       1.0  0.22352  0.79679  0.39198  1.0000
  N   N23       1.0  0.24961  0.75019  0.36459  1.0000
  C   C90       1.0  0.19548  0.84653  0.36630  1.0000
  C   C91       1.0  0.17388  0.88530  0.40482  1.0000
  C   C92       1.0  0.18844  0.85980  0.45457  1.0000
  C   C93       1.0  0.14305  0.93996  0.39236  1.0000
  C   C94       1.0  0.13484  0.95406  0.33753  1.0000
  C   C95       1.0  0.15748  0.91362  0.29727  1.0000
  C   C96       1.0  0.18839  0.85879  0.31164  1.0000
  N   N24       1.0  0.17314  0.88744  0.50101  1.0000
  H   H17       1.0  0.12819  0.96712  0.58199  1.0000
  O   O17       1.0  0.10915  0.00010  0.67689  1.0000
  O   O18       1.0  0.15058  0.92646  0.75066  1.0000
  H   H18       1.0  0.20403  0.83141  0.71711  1.0000
  H   H19       1.0  0.29533  0.66914  0.71713  1.0000
  O   O19       1.0  0.34889  0.57428  0.75063  1.0000
  O   O20       1.0  0.39045  0.50054  0.67684  1.0000
  H   H20       1.0  0.37166  0.53441  0.58197  1.0000
  H   H21       1.0  0.29534  0.66928  0.28491  1.0000
  O   O21       1.0  0.34902  0.57470  0.25135  1.0000
  O   O22       1.0  0.39077  0.50120  0.32510  1.0000
  H   H22       1.0  0.37190  0.53480  0.41999  1.0000
  H   H23       1.0  0.12804  0.96682  0.41997  1.0000
  O   O23       1.0  0.10889  0.99990  0.32507  1.0000
  O   O24       1.0  0.15040  0.92594  0.25133  1.0000
  H   H24       1.0  0.20390  0.83103  0.28492  1.0000
  Ni  Ni3       1.0  0.24990  0.75072  0.50102  1.0000
  C   C97       1.0  0.85685  0.06224  0.60961  1.0000
  C   C98       1.0  0.86502  0.04800  0.66444  1.0000
  C   C99       1.0  0.84240  0.08845  0.70472  1.0000
  C   C100      1.0  0.81152  0.14336  0.69037  1.0000
  C   C101      1.0  0.80444  0.15569  0.63571  1.0000
  C   C102      1.0  0.82605  0.11696  0.59718  1.0000
  C   C103      1.0  0.81153  0.14257  0.54744  1.0000
  N   N25       1.0  0.78022  0.19841  0.55436  1.0000
  C   C104      1.0  0.77642  0.20550  0.61005  1.0000
  N   N26       1.0  0.75036  0.25217  0.63744  1.0000
  C   C105      1.0  0.72414  0.29858  0.61005  1.0000
  N   N27       1.0  0.72015  0.30531  0.55436  1.0000
  C   C106      1.0  0.68870  0.36092  0.54744  1.0000
  C   C107      1.0  0.67431  0.38675  0.59718  1.0000
  C   C108      1.0  0.69611  0.34838  0.63571  1.0000
  N   N28       1.0  0.72009  0.30521  0.44765  1.0000
  C   C109      1.0  0.68860  0.36075  0.45456  1.0000
  N   N29       1.0  0.67311  0.38807  0.50100  1.0000
  C   C110      1.0  0.67418  0.38651  0.40481  1.0000
  C   C111      1.0  0.69602  0.34819  0.36629  1.0000
  C   C112      1.0  0.72411  0.29852  0.39196  1.0000
  C   C113      1.0  0.68912  0.36093  0.69037  1.0000
  C   C114      1.0  0.65819  0.41575  0.70469  1.0000
  C   C115      1.0  0.63546  0.45596  0.66440  1.0000
  C   C116      1.0  0.64349  0.44144  0.60958  1.0000
  C   C117      1.0  0.68906  0.36071  0.31163  1.0000
  C   C118      1.0  0.65806  0.41537  0.29727  1.0000
  C   C119      1.0  0.63524  0.45547  0.33754  1.0000
  C   C120      1.0  0.64329  0.44107  0.39237  1.0000
  N   N30       1.0  0.78030  0.19857  0.44766  1.0000
  C   C121      1.0  0.77653  0.20571  0.39197  1.0000
  N   N31       1.0  0.75043  0.25231  0.36458  1.0000
  C   C122      1.0  0.80457  0.15597  0.36629  1.0000
  C   C123      1.0  0.82617  0.11720  0.40481  1.0000
  C   C124      1.0  0.81160  0.14270  0.45456  1.0000
  C   C125      1.0  0.85700  0.06255  0.39236  1.0000
  C   C126      1.0  0.86521  0.04844  0.33752  1.0000
  C   C127      1.0  0.84257  0.08888  0.29726  1.0000
  C   C128      1.0  0.81166  0.14371  0.31163  1.0000
  N   N32       1.0  0.82691  0.11506  0.50100  1.0000
  H   H25       1.0  0.87186  0.03540  0.58199  1.0000
  O   O25       1.0  0.89090  0.00203  0.67688  1.0000
  O   O26       1.0  0.84947  0.07606  0.75065  1.0000
  H   H26       1.0  0.79602  0.17111  0.71710  1.0000
  H   H27       1.0  0.70472  0.33338  0.71712  1.0000
  O   O27       1.0  0.65117  0.42824  0.75062  1.0000
  O   O28       1.0  0.60960  0.50198  0.67682  1.0000
  H   H28       1.0  0.62839  0.46811  0.58195  1.0000
  H   H29       1.0  0.70471  0.33322  0.28490  1.0000
  O   O29       1.0  0.65103  0.42779  0.25134  1.0000
  O   O30       1.0  0.60928  0.50130  0.32509  1.0000
  H   H30       1.0  0.62815  0.46770  0.41998  1.0000
  H   H31       1.0  0.87201  0.03568  0.41997  1.0000
  O   O31       1.0  0.89116  0.00260  0.32506  1.0000
  O   O32       1.0  0.84965  0.07656  0.25132  1.0000
  H   H32       1.0  0.79615  0.17147  0.28491  1.0000
  Ni  Ni4       1.0  0.75015  0.25179  0.50101  1.0000
  Fe  Fe1       1.0  0.10897  0.00010  0.25097  1.0000
  Fe  Fe2       1.0  0.89099  0.00153  0.25100  1.0000
  Fe  Fe3       1.0  0.89103  0.00156  0.75099  1.0000
  Fe  Fe4       1.0  0.10899  0.00010  0.75101  1.0000
  Fe  Fe5       1.0  0.60899  0.50152  0.25098  1.0000
  Fe  Fe6       1.0  0.39102  0.50090  0.25101  1.0000
  Fe  Fe7       1.0  0.39100  0.50079  0.75097  1.0000
  Fe  Fe8       1.0  0.60896  0.50153  0.75099  1.0000
  C   C129      1.0  0.99990  0.92867  0.25098  1.0000
  C   C130      1.0  0.96453  0.96503  0.25099  1.0000
  C   C131      1.0  0.96462  0.03750  0.25100  1.0000
  C   C132      1.0  0.00010  0.07360  0.25099  1.0000
  C   C133      1.0  0.03543  0.03724  0.25098  1.0000
  C   C134      1.0  0.03534  0.96477  0.25098  1.0000
  H   H33       1.0  0.99990  0.87432  0.25098  1.0000
  O   O33       1.0  0.93263  0.93253  0.25100  1.0000
  O   O34       1.0  0.93279  0.07022  0.25101  1.0000
  H   H34       1.0  0.00010  0.12795  0.25099  1.0000
  O   O35       1.0  0.06733  0.06974  0.25098  1.0000
  O   O36       1.0  0.06717  0.93205  0.25097  1.0000
  C   C135      1.0  0.99990  0.92875  0.75100  1.0000
  C   C136      1.0  0.03538  0.96487  0.75101  1.0000
  C   C137      1.0  0.03545  0.03734  0.75101  1.0000
  C   C138      1.0  0.00010  0.07368  0.75101  1.0000
  C   C139      1.0  0.96464  0.03756  0.75100  1.0000
  C   C140      1.0  0.96457  0.96509  0.75100  1.0000
  H   H35       1.0  0.99990  0.87440  0.75100  1.0000
  O   O37       1.0  0.06721  0.93216  0.75101  1.0000
  O   O38       1.0  0.06735  0.06985  0.75102  1.0000
  H   H36       1.0  0.00010  0.12803  0.75101  1.0000
  O   O39       1.0  0.93281  0.07027  0.75100  1.0000
  O   O40       1.0  0.93267  0.93258  0.75099  1.0000
  C   C141      1.0  0.50007  0.42873  0.25100  1.0000
  C   C142      1.0  0.46463  0.46487  0.25100  1.0000
  C   C143      1.0  0.46457  0.53734  0.25101  1.0000
  C   C144      1.0  0.49995  0.57367  0.25100  1.0000
  C   C145      1.0  0.53538  0.53753  0.25099  1.0000
  C   C146      1.0  0.53544  0.46506  0.25099  1.0000
  H   H37       1.0  0.50011  0.37438  0.25099  1.0000
  O   O41       1.0  0.43279  0.43218  0.25101  1.0000
  O   O42       1.0  0.43268  0.56987  0.25102  1.0000
  H   H38       1.0  0.49990  0.62802  0.25101  1.0000
  O   O43       1.0  0.56722  0.57023  0.25099  1.0000
  O   O44       1.0  0.56734  0.43254  0.25098  1.0000
  C   C147      1.0  0.50006  0.42868  0.75098  1.0000
  C   C148      1.0  0.53543  0.46504  0.75098  1.0000
  C   C149      1.0  0.53535  0.53751  0.75099  1.0000
  C   C150      1.0  0.49990  0.57362  0.75098  1.0000
  C   C151      1.0  0.46454  0.53726  0.75098  1.0000
  C   C152      1.0  0.46461  0.46480  0.75097  1.0000
  H   H39       1.0  0.50012  0.37433  0.75097  1.0000
  O   O45       1.0  0.56733  0.43254  0.75099  1.0000
  O   O46       1.0  0.56718  0.57023  0.75099  1.0000
  H   H40       1.0  0.49985  0.62797  0.75099  1.0000
  O   O47       1.0  0.43264  0.56976  0.75097  1.0000
  O   O48       1.0  0.43278  0.43208  0.75097  1.0000
