data_image0
_chemical_formula_structural       C7NCNCNC3NCNC11NCNC7NHO2H2O2H2O2H2O2HNiC7NCNCNC3NCNC11NCNC7NHO2H2O2H2O2H2O2HNiC7NCNCNC3NCNC11NCNC7NHO2H2O2H2O2H2O2HNiC7NCNCNC3NCNC11NCNC7NHO2H2O2H2O2H2O2HNiFe8C6O2HO2HCuC6O2HO2HCuC6O2HO2HCuC6O2HO2HCuC6O2HO2HCuC6O2HO2HCuC6O2HO2HCuC6O2HO2HCuC6O2HO2HCuC6O2HO2HCuC6O2HO2HCuC6O2HO2HCuC6O2HO2HCuC6O2HO2HCuC6O2HO2HCuC6O2HO2HCuC6HO2HO2C6HO2HO2C6HO2HO2C6HO2HO2
_chemical_formula_sum              "C248 N32 H72 O112 Ni4 Fe8 Cu16"
_cell_length_a       50.9734
_cell_length_b       36.0501
_cell_length_c       50.9721
_cell_angle_alpha    90
_cell_angle_beta     90.0229
_cell_angle_gamma    89.9998

_space_group_name_H-M_alt    "P 1"
_space_group_IT_number       1

loop_
  _space_group_symop_operation_xyz
  'x, y, z'

loop_
  _atom_site_type_symbol
  _atom_site_label
  _atom_site_symmetry_multiplicity
  _atom_site_fract_x
  _atom_site_fract_y
  _atom_site_fract_z
  _atom_site_occupancy
  C   C1        1.0  0.32183  0.35355  0.06333  1.0000
  C   C2        1.0  0.32723  0.36133  0.09271  1.0000
  C   C3        1.0  0.31190  0.33986  0.11430  1.0000
  C   C4        1.0  0.29109  0.31052  0.10662  1.0000
  C   C5        1.0  0.28642  0.30377  0.07732  1.0000
  C   C6        1.0  0.30110  0.32428  0.05668  1.0000
  C   C7        1.0  0.29139  0.31047  0.03002  1.0000
  N   N1        1.0  0.27023  0.28072  0.03373  1.0000
  C   C8        1.0  0.26754  0.27714  0.06357  1.0000
  N   N2        1.0  0.24986  0.25238  0.07826  1.0000
  C   C9        1.0  0.23227  0.22747  0.06358  1.0000
  N   N3        1.0  0.22972  0.22365  0.03374  1.0000
  C   C10       1.0  0.20864  0.19377  0.03003  1.0000
  C   C11       1.0  0.19886  0.18012  0.05669  1.0000
  C   C12       1.0  0.21340  0.20084  0.07734  1.0000
  N   N4        1.0  0.22976  0.22355  0.97655  1.0000
  C   C13       1.0  0.20871  0.19363  0.98026  1.0000
  N   N5        1.0  0.19836  0.17894  0.00515  1.0000
  C   C14       1.0  0.19895  0.17991  0.95360  1.0000
  C   C15       1.0  0.21346  0.20065  0.93295  1.0000
  C   C16       1.0  0.23229  0.22735  0.94671  1.0000
  C   C17       1.0  0.20865  0.19423  0.10663  1.0000
  C   C18       1.0  0.18787  0.16485  0.11431  1.0000
  C   C19       1.0  0.17263  0.14324  0.09272  1.0000
  C   C20       1.0  0.17813  0.15084  0.06334  1.0000
  C   C21       1.0  0.20872  0.19401  0.90366  1.0000
  C   C22       1.0  0.18801  0.16455  0.89597  1.0000
  C   C23       1.0  0.17281  0.14290  0.91755  1.0000
  C   C24       1.0  0.17827  0.15057  0.94693  1.0000
  N   N6        1.0  0.27017  0.28075  0.97655  1.0000
  C   C25       1.0  0.26746  0.27715  0.94670  1.0000
  N   N7        1.0  0.24980  0.25235  0.93203  1.0000
  C   C26       1.0  0.28631  0.30378  0.93294  1.0000
  C   C27       1.0  0.30100  0.32431  0.95358  1.0000
  C   C28       1.0  0.29134  0.31050  0.98024  1.0000
  C   C29       1.0  0.32171  0.35360  0.94690  1.0000
  C   C30       1.0  0.32705  0.36138  0.91752  1.0000
  C   C31       1.0  0.31173  0.33985  0.89594  1.0000
  C   C32       1.0  0.29095  0.31049  0.90364  1.0000
  N   N8        1.0  0.30181  0.32506  0.00513  1.0000
  H   H1        1.0  0.33200  0.36779  0.04853  1.0000
  O   O1        1.0  0.34465  0.38593  0.09938  1.0000
  O   O2        1.0  0.31660  0.34659  0.13892  1.0000
  H   H2        1.0  0.28058  0.29580  0.12095  1.0000
  H   H3        1.0  0.21909  0.20906  0.12096  1.0000
  O   O3        1.0  0.18314  0.15819  0.13892  1.0000
  O   O4        1.0  0.15519  0.11867  0.09938  1.0000
  H   H4        1.0  0.16803  0.13649  0.04854  1.0000
  H   H5        1.0  0.21914  0.20887  0.88933  1.0000
  O   O5        1.0  0.18330  0.15786  0.87135  1.0000
  O   O6        1.0  0.15544  0.11823  0.91088  1.0000
  H   H6        1.0  0.16818  0.13620  0.96173  1.0000
  H   H7        1.0  0.33189  0.36787  0.96170  1.0000
  O   O7        1.0  0.34443  0.38602  0.91083  1.0000
  O   O8        1.0  0.31640  0.34656  0.87132  1.0000
  H   H8        1.0  0.28043  0.29574  0.88933  1.0000
  Ni  Ni1       1.0  0.25000  0.25213  0.00514  1.0000
  C   C33       1.0  0.82170  0.85350  0.94688  1.0000
  C   C34       1.0  0.82719  0.86111  0.91750  1.0000
  C   C35       1.0  0.81199  0.83942  0.89592  1.0000
  C   C36       1.0  0.79125  0.81000  0.90361  1.0000
  C   C37       1.0  0.78649  0.80341  0.93290  1.0000
  C   C38       1.0  0.80101  0.82418  0.95355  1.0000
  C   C39       1.0  0.79126  0.81048  0.98020  1.0000
  N   N9        1.0  0.77022  0.78055  0.97650  1.0000
  C   C40       1.0  0.76767  0.77673  0.94666  1.0000
  N   N10       1.0  0.75016  0.75171  0.93198  1.0000
  C   C41       1.0  0.73255  0.72684  0.94666  1.0000
  N   N11       1.0  0.72987  0.72326  0.97651  1.0000
  C   C42       1.0  0.70873  0.69346  0.98022  1.0000
  C   C43       1.0  0.69907  0.67960  0.95357  1.0000
  C   C44       1.0  0.71371  0.70015  0.93291  1.0000
  N   N12       1.0  0.72982  0.72336  0.03369  1.0000
  C   C45       1.0  0.70867  0.69359  0.03000  1.0000
  N   N13       1.0  0.69826  0.67893  0.00511  1.0000
  C   C46       1.0  0.69898  0.67981  0.05666  1.0000
  C   C47       1.0  0.71366  0.70036  0.07730  1.0000
  C   C48       1.0  0.73253  0.72697  0.06354  1.0000
  C   C49       1.0  0.70902  0.69340  0.90362  1.0000
  C   C50       1.0  0.68824  0.66402  0.89595  1.0000
  C   C51       1.0  0.67297  0.64248  0.91754  1.0000
  C   C52       1.0  0.67836  0.65028  0.94692  1.0000
  C   C53       1.0  0.70898  0.69367  0.10659  1.0000
  C   C54       1.0  0.68815  0.66439  0.11429  1.0000
  C   C55       1.0  0.67282  0.64288  0.09271  1.0000
  C   C56       1.0  0.67823  0.65057  0.06333  1.0000
  N   N14       1.0  0.77027  0.78051  0.03369  1.0000
  C   C57       1.0  0.76774  0.77671  0.06353  1.0000
  N   N15       1.0  0.75021  0.75174  0.07821  1.0000
  C   C58       1.0  0.78658  0.80337  0.07729  1.0000
  C   C59       1.0  0.80109  0.82413  0.05664  1.0000
  C   C60       1.0  0.79130  0.81044  0.02998  1.0000
  C   C61       1.0  0.82180  0.85343  0.06331  1.0000
  C   C62       1.0  0.82732  0.86101  0.09270  1.0000
  C   C63       1.0  0.81211  0.83935  0.11428  1.0000
  C   C64       1.0  0.79134  0.80996  0.10658  1.0000
  N   N16       1.0  0.80159  0.82524  0.00509  1.0000
  H   H9        1.0  0.83178  0.86790  0.96169  1.0000
  O   O9        1.0  0.84458  0.88574  0.91083  1.0000
  O   O10       1.0  0.81674  0.84604  0.87130  1.0000
  H   H10       1.0  0.78083  0.79512  0.88928  1.0000
  H   H11       1.0  0.71950  0.70815  0.88929  1.0000
  O   O11       1.0  0.68352  0.65730  0.87134  1.0000
  O   O12       1.0  0.65560  0.61781  0.91089  1.0000
  H   H12       1.0  0.66822  0.63601  0.96173  1.0000
  H   H13       1.0  0.71949  0.70842  0.12092  1.0000
  O   O13       1.0  0.68343  0.65775  0.13891  1.0000
  O   O14       1.0  0.65538  0.61832  0.09939  1.0000
  H   H14       1.0  0.66806  0.63629  0.04853  1.0000
  H   H15       1.0  0.83189  0.86781  0.04851  1.0000
  O   O15       1.0  0.84475  0.88558  0.09938  1.0000
  O   O16       1.0  0.81686  0.84598  0.13890  1.0000
  H   H16       1.0  0.78092  0.79510  0.12090  1.0000
  Ni  Ni2       1.0  0.75002  0.75197  0.00510  1.0000
  C   C65       1.0  0.17851  0.85395  0.56335  1.0000
  C   C66       1.0  0.17302  0.86155  0.59273  1.0000
  C   C67       1.0  0.18822  0.83986  0.61432  1.0000
  C   C68       1.0  0.20896  0.81044  0.60663  1.0000
  C   C69       1.0  0.21372  0.80385  0.57733  1.0000
  C   C70       1.0  0.19920  0.82463  0.55669  1.0000
  C   C71       1.0  0.20895  0.81092  0.53003  1.0000
  N   N17       1.0  0.22999  0.78099  0.53373  1.0000
  C   C72       1.0  0.23254  0.77717  0.56358  1.0000
  N   N18       1.0  0.25005  0.75215  0.57825  1.0000
  C   C73       1.0  0.26767  0.72729  0.56357  1.0000
  N   N19       1.0  0.27034  0.72370  0.53373  1.0000
  C   C74       1.0  0.29148  0.69390  0.53002  1.0000
  C   C75       1.0  0.30114  0.68004  0.55667  1.0000
  C   C76       1.0  0.28650  0.70059  0.57732  1.0000
  N   N20       1.0  0.27039  0.72380  0.47655  1.0000
  C   C77       1.0  0.29154  0.69403  0.48024  1.0000
  N   N21       1.0  0.30195  0.67937  0.50513  1.0000
  C   C78       1.0  0.30123  0.68025  0.45358  1.0000
  C   C79       1.0  0.28656  0.70080  0.43294  1.0000
  C   C80       1.0  0.26769  0.72741  0.44670  1.0000
  C   C81       1.0  0.29119  0.69384  0.60662  1.0000
  C   C82       1.0  0.31197  0.66446  0.61429  1.0000
  C   C83       1.0  0.32724  0.64292  0.59269  1.0000
  C   C84       1.0  0.32185  0.65073  0.56332  1.0000
  C   C85       1.0  0.29123  0.69411  0.40364  1.0000
  C   C86       1.0  0.31206  0.66483  0.39595  1.0000
  C   C87       1.0  0.32739  0.64332  0.41753  1.0000
  C   C88       1.0  0.32198  0.65101  0.44691  1.0000
  N   N22       1.0  0.22994  0.78095  0.47655  1.0000
  C   C89       1.0  0.23247  0.77714  0.44671  1.0000
  N   N23       1.0  0.25000  0.75218  0.43203  1.0000
  C   C90       1.0  0.21363  0.80381  0.43295  1.0000
  C   C91       1.0  0.19912  0.82457  0.45359  1.0000
  C   C92       1.0  0.20891  0.81089  0.48025  1.0000
  C   C93       1.0  0.17841  0.85387  0.44692  1.0000
  C   C94       1.0  0.17290  0.86145  0.41754  1.0000
  C   C95       1.0  0.18810  0.83979  0.39596  1.0000
  C   C96       1.0  0.20887  0.81040  0.40365  1.0000
  N   N24       1.0  0.19863  0.82568  0.50514  1.0000
  H   H17       1.0  0.16843  0.86834  0.54855  1.0000
  O   O17       1.0  0.15563  0.88618  0.59941  1.0000
  O   O18       1.0  0.18347  0.84648  0.63893  1.0000
  H   H18       1.0  0.21938  0.79556  0.62095  1.0000
  H   H19       1.0  0.28071  0.70860  0.62095  1.0000
  O   O19       1.0  0.31669  0.65775  0.63890  1.0000
  O   O20       1.0  0.34461  0.61826  0.59935  1.0000
  H   H20       1.0  0.33199  0.63645  0.54851  1.0000
  H   H21       1.0  0.28072  0.70885  0.38932  1.0000
  O   O21       1.0  0.31678  0.65818  0.37133  1.0000
  O   O22       1.0  0.34483  0.61876  0.41085  1.0000
  H   H22       1.0  0.33215  0.63673  0.46171  1.0000
  H   H23       1.0  0.16833  0.86825  0.46172  1.0000
  O   O23       1.0  0.15546  0.88602  0.41086  1.0000
  O   O24       1.0  0.18335  0.84641  0.37134  1.0000
  H   H24       1.0  0.21929  0.79554  0.38933  1.0000
  Ni  Ni3       1.0  0.25019  0.75241  0.50514  1.0000
  C   C97       1.0  0.82148  0.15005  0.56332  1.0000
  C   C98       1.0  0.82697  0.14239  0.59270  1.0000
  C   C99       1.0  0.81177  0.16405  0.61429  1.0000
  C   C100      1.0  0.79103  0.19349  0.60660  1.0000
  C   C101      1.0  0.78628  0.20012  0.57731  1.0000
  C   C102      1.0  0.80079  0.17938  0.55666  1.0000
  C   C103      1.0  0.79104  0.19313  0.53001  1.0000
  N   N25       1.0  0.77000  0.22305  0.53371  1.0000
  C   C104      1.0  0.76745  0.22682  0.56356  1.0000
  N   N26       1.0  0.74994  0.25182  0.57824  1.0000
  C   C105      1.0  0.73233  0.27671  0.56357  1.0000
  N   N27       1.0  0.72965  0.28034  0.53372  1.0000
  C   C106      1.0  0.70852  0.31014  0.53002  1.0000
  C   C107      1.0  0.69885  0.32397  0.55667  1.0000
  C   C108      1.0  0.71349  0.30338  0.57732  1.0000
  N   N28       1.0  0.72961  0.28033  0.47654  1.0000
  C   C109      1.0  0.70845  0.31009  0.48024  1.0000
  N   N29       1.0  0.69804  0.32471  0.50513  1.0000
  C   C110      1.0  0.69876  0.32392  0.45358  1.0000
  C   C111      1.0  0.71344  0.30341  0.43294  1.0000
  C   C112      1.0  0.73231  0.27677  0.44669  1.0000
  C   C113      1.0  0.70880  0.31008  0.60662  1.0000
  C   C114      1.0  0.68802  0.33945  0.61430  1.0000
  C   C115      1.0  0.67275  0.36102  0.59271  1.0000
  C   C116      1.0  0.67815  0.35327  0.56333  1.0000
  C   C117      1.0  0.70876  0.31014  0.40364  1.0000
  C   C118      1.0  0.68793  0.33944  0.39595  1.0000
  C   C119      1.0  0.67261  0.36091  0.41754  1.0000
  C   C120      1.0  0.67802  0.35317  0.44692  1.0000
  N   N30       1.0  0.77006  0.22318  0.47653  1.0000
  C   C121      1.0  0.76752  0.22704  0.44669  1.0000
  N   N31       1.0  0.74999  0.25202  0.43201  1.0000
  C   C122      1.0  0.78636  0.20039  0.43293  1.0000
  C   C123      1.0  0.80087  0.17960  0.45356  1.0000
  C   C124      1.0  0.79109  0.19324  0.48023  1.0000
  C   C125      1.0  0.82158  0.15031  0.44689  1.0000
  C   C126      1.0  0.82710  0.14278  0.41750  1.0000
  C   C127      1.0  0.81189  0.16447  0.39592  1.0000
  C   C128      1.0  0.79112  0.19385  0.40363  1.0000
  N   N32       1.0  0.80137  0.17841  0.50511  1.0000
  H   H25       1.0  0.83157  0.13568  0.54851  1.0000
  O   O25       1.0  0.84436  0.11775  0.59936  1.0000
  O   O26       1.0  0.81652  0.15739  0.63890  1.0000
  H   H26       1.0  0.78061  0.20834  0.62093  1.0000
  H   H27       1.0  0.71928  0.29530  0.62095  1.0000
  O   O27       1.0  0.68330  0.34613  0.63891  1.0000
  O   O28       1.0  0.65538  0.38568  0.59937  1.0000
  H   H28       1.0  0.66800  0.36757  0.54852  1.0000
  H   H29       1.0  0.71928  0.29542  0.38932  1.0000
  O   O29       1.0  0.68321  0.34612  0.37134  1.0000
  O   O30       1.0  0.65516  0.38547  0.41087  1.0000
  H   H30       1.0  0.66784  0.36743  0.46172  1.0000
  H   H31       1.0  0.83167  0.13590  0.46168  1.0000
  O   O31       1.0  0.84453  0.11822  0.41082  1.0000
  O   O32       1.0  0.81665  0.15789  0.37130  1.0000
  H   H32       1.0  0.78070  0.20873  0.38931  1.0000
  Ni  Ni4       1.0  0.74980  0.25168  0.50513  1.0000
  Fe  Fe1       1.0  0.07322  0.00224  0.25513  1.0000
  Fe  Fe2       1.0  0.92676  0.00217  0.25508  1.0000
  Fe  Fe3       1.0  0.92680  0.00179  0.75509  1.0000
  Fe  Fe4       1.0  0.07322  0.00197  0.75515  1.0000
  Fe  Fe5       1.0  0.57324  0.50219  0.25515  1.0000
  Fe  Fe6       1.0  0.42678  0.50236  0.25509  1.0000
  Fe  Fe7       1.0  0.42678  0.50184  0.75507  1.0000
  Fe  Fe8       1.0  0.57320  0.50176  0.75514  1.0000
  C   C129      1.0  0.09249  0.02959  0.20653  1.0000
  C   C130      1.0  0.10758  0.05093  0.22789  1.0000
  C   C131      1.0  0.12818  0.08014  0.22011  1.0000
  C   C132      1.0  0.13374  0.08808  0.19096  1.0000
  C   C133      1.0  0.11862  0.06669  0.16951  1.0000
  C   C134      1.0  0.09802  0.03749  0.17737  1.0000
  O   O33       1.0  0.07228  0.00010  0.21416  1.0000
  O   O34       1.0  0.10216  0.04318  0.25648  1.0000
  H   H33       1.0  0.13933  0.09590  0.23596  1.0000
  O   O35       1.0  0.15400  0.11680  0.18342  1.0000
  O   O36       1.0  0.12396  0.07433  0.14083  1.0000
  H   H34       1.0  0.08685  0.02170  0.16155  1.0000
  Cu  Cu1       1.0  0.15433  0.11737  0.14046  1.0000
  C   C135      1.0  0.89244  0.95349  0.22778  1.0000
  C   C136      1.0  0.90752  0.97485  0.20643  1.0000
  C   C137      1.0  0.90204  0.96701  0.17726  1.0000
  C   C138      1.0  0.88147  0.93779  0.16936  1.0000
  C   C139      1.0  0.86633  0.91634  0.19075  1.0000
  C   C140      1.0  0.87187  0.92426  0.21992  1.0000
  O   O37       1.0  0.89782  0.96117  0.25640  1.0000
  O   O38       1.0  0.92769  0.00350  0.21413  1.0000
  H   H35       1.0  0.91322  0.98286  0.16149  1.0000
  O   O39       1.0  0.87615  0.93019  0.14067  1.0000
  O   O40       1.0  0.84609  0.88759  0.18315  1.0000
  H   H36       1.0  0.86070  0.90844  0.23572  1.0000
  Cu  Cu2       1.0  0.84584  0.88715  0.14015  1.0000
  C   C141      1.0  0.10759  0.95364  0.28244  1.0000
  C   C142      1.0  0.09250  0.97498  0.30378  1.0000
  C   C143      1.0  0.09801  0.96719  0.33296  1.0000
  C   C144      1.0  0.11862  0.93804  0.34086  1.0000
  C   C145      1.0  0.13378  0.91661  0.31947  1.0000
  C   C146      1.0  0.12822  0.92448  0.29030  1.0000
  O   O41       1.0  0.10219  0.96129  0.25382  1.0000
  O   O42       1.0  0.07228  0.00358  0.29608  1.0000
  H   H37       1.0  0.08681  0.98303  0.34872  1.0000
  O   O43       1.0  0.12396  0.93048  0.36955  1.0000
  O   O44       1.0  0.15406  0.88793  0.32708  1.0000
  H   H38       1.0  0.13939  0.90868  0.27451  1.0000
  Cu  Cu3       1.0  0.15434  0.88753  0.37008  1.0000
  C   C147      1.0  0.90745  0.02946  0.30368  1.0000
  C   C148      1.0  0.89233  0.05078  0.28233  1.0000
  C   C149      1.0  0.87169  0.07993  0.29010  1.0000
  C   C150      1.0  0.86611  0.08784  0.31925  1.0000
  C   C151      1.0  0.88125  0.06648  0.34070  1.0000
  C   C152      1.0  0.90189  0.03733  0.33284  1.0000
  O   O45       1.0  0.92770  0.00010  0.29606  1.0000
  O   O46       1.0  0.89778  0.04307  0.25373  1.0000
  H   H39       1.0  0.86053  0.09567  0.27426  1.0000
  O   O47       1.0  0.84581  0.11650  0.32680  1.0000
  O   O48       1.0  0.87589  0.07408  0.36939  1.0000
  H   H40       1.0  0.91308  0.02155  0.34866  1.0000
  Cu  Cu4       1.0  0.84546  0.11704  0.36975  1.0000
  C   C153      1.0  0.89244  0.95320  0.78240  1.0000
  C   C154      1.0  0.90754  0.97456  0.80374  1.0000
  C   C155      1.0  0.90205  0.96679  0.83291  1.0000
  C   C156      1.0  0.88143  0.93765  0.84082  1.0000
  C   C157      1.0  0.86627  0.91621  0.81943  1.0000
  C   C158      1.0  0.87182  0.92405  0.79026  1.0000
  O   O49       1.0  0.89783  0.96081  0.75377  1.0000
  O   O50       1.0  0.92776  0.00314  0.79602  1.0000
  H   H41       1.0  0.91325  0.98264  0.84867  1.0000
  O   O51       1.0  0.87610  0.93012  0.86951  1.0000
  O   O52       1.0  0.84598  0.88753  0.82704  1.0000
  H   H42       1.0  0.86063  0.90823  0.77447  1.0000
  Cu  Cu5       1.0  0.84572  0.88718  0.87004  1.0000
  C   C159      1.0  0.09254  0.02931  0.80375  1.0000
  C   C160      1.0  0.10760  0.05066  0.78239  1.0000
  C   C161      1.0  0.12822  0.07985  0.79016  1.0000
  C   C162      1.0  0.13382  0.08776  0.81932  1.0000
  C   C163      1.0  0.11873  0.06637  0.84076  1.0000
  C   C164      1.0  0.09811  0.03718  0.83291  1.0000
  O   O53       1.0  0.07231  0.00010  0.79613  1.0000
  O   O54       1.0  0.10214  0.04294  0.75380  1.0000
  H   H43       1.0  0.13935  0.09562  0.77432  1.0000
  O   O55       1.0  0.15410  0.11647  0.82686  1.0000
  O   O56       1.0  0.12412  0.07398  0.86945  1.0000
  H   H44       1.0  0.08696  0.02138  0.84873  1.0000
  Cu  Cu6       1.0  0.15450  0.11700  0.86981  1.0000
  C   C165      1.0  0.90744  0.02908  0.70649  1.0000
  C   C166      1.0  0.89236  0.05040  0.72785  1.0000
  C   C167      1.0  0.87170  0.07953  0.72008  1.0000
  C   C168      1.0  0.86607  0.08742  0.69093  1.0000
  C   C169      1.0  0.88119  0.06605  0.66948  1.0000
  C   C170      1.0  0.90185  0.03692  0.67733  1.0000
  O   O57       1.0  0.92771  0.00010  0.71411  1.0000
  O   O58       1.0  0.89785  0.04271  0.75644  1.0000
  H   H45       1.0  0.86056  0.09528  0.73592  1.0000
  O   O59       1.0  0.84576  0.11607  0.68339  1.0000
  O   O60       1.0  0.87578  0.07364  0.64079  1.0000
  H   H46       1.0  0.91301  0.02114  0.66151  1.0000
  Cu  Cu7       1.0  0.84534  0.11658  0.64043  1.0000
  C   C171      1.0  0.10763  0.95345  0.72784  1.0000
  C   C172      1.0  0.09251  0.97478  0.70650  1.0000
  C   C173      1.0  0.09802  0.96704  0.67732  1.0000
  C   C174      1.0  0.11867  0.93796  0.66941  1.0000
  C   C175      1.0  0.13386  0.91654  0.69080  1.0000
  C   C176      1.0  0.12829  0.92436  0.71997  1.0000
  O   O61       1.0  0.10222  0.96104  0.75646  1.0000
  O   O62       1.0  0.07225  0.00331  0.71421  1.0000
  H   H47       1.0  0.08680  0.98287  0.66156  1.0000
  O   O63       1.0  0.12403  0.93045  0.64073  1.0000
  O   O64       1.0  0.15418  0.88792  0.68319  1.0000
  H   H48       1.0  0.13949  0.90856  0.73577  1.0000
  Cu  Cu8       1.0  0.15446  0.88758  0.64019  1.0000
  C   C177      1.0  0.59255  0.52948  0.20654  1.0000
  C   C178      1.0  0.60766  0.55079  0.22790  1.0000
  C   C179      1.0  0.62831  0.57993  0.22012  1.0000
  C   C180      1.0  0.63389  0.58784  0.19096  1.0000
  C   C181      1.0  0.61874  0.56648  0.16952  1.0000
  C   C182      1.0  0.59809  0.53734  0.17738  1.0000
  O   O65       1.0  0.57229  0.50089  0.21418  1.0000
  O   O66       1.0  0.60222  0.54309  0.25649  1.0000
  H   H49       1.0  0.63947  0.59568  0.23596  1.0000
  O   O67       1.0  0.65419  0.61649  0.18342  1.0000
  O   O68       1.0  0.62410  0.57408  0.14083  1.0000
  H   H50       1.0  0.58691  0.52157  0.16157  1.0000
  Cu  Cu9       1.0  0.65454  0.61703  0.14046  1.0000
  C   C183      1.0  0.39241  0.45375  0.22779  1.0000
  C   C184      1.0  0.40750  0.47509  0.20644  1.0000
  C   C185      1.0  0.40200  0.46728  0.17727  1.0000
  C   C186      1.0  0.38139  0.43812  0.16937  1.0000
  C   C187      1.0  0.36624  0.41669  0.19076  1.0000
  C   C188      1.0  0.37180  0.42458  0.21993  1.0000
  O   O69       1.0  0.39781  0.46140  0.25641  1.0000
  O   O70       1.0  0.42772  0.50369  0.21415  1.0000
  H   H51       1.0  0.41320  0.48311  0.16150  1.0000
  O   O71       1.0  0.37605  0.43055  0.14068  1.0000
  O   O72       1.0  0.34596  0.38799  0.18316  1.0000
  H   H52       1.0  0.36062  0.40877  0.23573  1.0000
  Cu  Cu10      1.0  0.34569  0.38758  0.14017  1.0000
  C   C189      1.0  0.60755  0.45350  0.28246  1.0000
  C   C190      1.0  0.59248  0.47487  0.30380  1.0000
  C   C191      1.0  0.59796  0.46704  0.33298  1.0000
  C   C192      1.0  0.61853  0.43782  0.34088  1.0000
  C   C193      1.0  0.63366  0.41636  0.31948  1.0000
  C   C194      1.0  0.62812  0.42427  0.29031  1.0000
  O   O73       1.0  0.60217  0.46118  0.25383  1.0000
  O   O74       1.0  0.57231  0.50353  0.29610  1.0000
  H   H53       1.0  0.58678  0.48289  0.34874  1.0000
  O   O75       1.0  0.62385  0.43022  0.36956  1.0000
  O   O76       1.0  0.65390  0.38761  0.32708  1.0000
  H   H54       1.0  0.63928  0.40845  0.27451  1.0000
  Cu  Cu11      1.0  0.65416  0.38717  0.37008  1.0000
  C   C195      1.0  0.40751  0.52969  0.30370  1.0000
  C   C196      1.0  0.39241  0.55103  0.28234  1.0000
  C   C197      1.0  0.37180  0.58023  0.29012  1.0000
  C   C198      1.0  0.36624  0.58816  0.31928  1.0000
  C   C199      1.0  0.38137  0.56677  0.34072  1.0000
  C   C200      1.0  0.40198  0.53758  0.33286  1.0000
  O   O77       1.0  0.42773  0.50105  0.29606  1.0000
  O   O78       1.0  0.39783  0.54330  0.25375  1.0000
  H   H55       1.0  0.36065  0.59599  0.27428  1.0000
  O   O79       1.0  0.34598  0.61687  0.32682  1.0000
  O   O80       1.0  0.37602  0.57440  0.36941  1.0000
  H   H56       1.0  0.41315  0.52178  0.34867  1.0000
  Cu  Cu12      1.0  0.34564  0.61742  0.36978  1.0000
  C   C201      1.0  0.39236  0.45334  0.78239  1.0000
  C   C202      1.0  0.40748  0.47467  0.80373  1.0000
  C   C203      1.0  0.40197  0.46695  0.83290  1.0000
  C   C204      1.0  0.38131  0.43787  0.84082  1.0000
  C   C205      1.0  0.36612  0.41645  0.81944  1.0000
  C   C206      1.0  0.37169  0.42426  0.79026  1.0000
  O   O81       1.0  0.39777  0.46092  0.75377  1.0000
  O   O82       1.0  0.42774  0.50319  0.79601  1.0000
  H   H57       1.0  0.41319  0.48277  0.84866  1.0000
  O   O83       1.0  0.37595  0.43038  0.86951  1.0000
  O   O84       1.0  0.34579  0.38784  0.82705  1.0000
  H   H58       1.0  0.36049  0.40846  0.77447  1.0000
  Cu  Cu13      1.0  0.34551  0.38752  0.87005  1.0000
  C   C207      1.0  0.60760  0.55033  0.78246  1.0000
  C   C208      1.0  0.59251  0.52899  0.80380  1.0000
  C   C209      1.0  0.59804  0.53674  0.83297  1.0000
  C   C210      1.0  0.61868  0.56585  0.84088  1.0000
  C   C211      1.0  0.63384  0.58729  0.81949  1.0000
  C   C212      1.0  0.62825  0.57945  0.79032  1.0000
  O   O85       1.0  0.60217  0.54272  0.75383  1.0000
  O   O86       1.0  0.57226  0.50043  0.79609  1.0000
  H   H59       1.0  0.58685  0.52090  0.84874  1.0000
  O   O87       1.0  0.62405  0.57338  0.86956  1.0000
  O   O88       1.0  0.65415  0.61594  0.82709  1.0000
  H   H60       1.0  0.63942  0.59526  0.77452  1.0000
  Cu  Cu14      1.0  0.65446  0.61629  0.87009  1.0000
  C   C213      1.0  0.40746  0.52920  0.70647  1.0000
  C   C214      1.0  0.39240  0.55055  0.72784  1.0000
  C   C215      1.0  0.37179  0.57975  0.72007  1.0000
  C   C216      1.0  0.36618  0.58768  0.69092  1.0000
  C   C217      1.0  0.38128  0.56628  0.66947  1.0000
  C   C218      1.0  0.40189  0.53708  0.67731  1.0000
  O   O89       1.0  0.42768  0.50055  0.71409  1.0000
  O   O90       1.0  0.39786  0.54282  0.75643  1.0000
  H   H61       1.0  0.36066  0.59552  0.73592  1.0000
  O   O91       1.0  0.34592  0.61640  0.68338  1.0000
  O   O92       1.0  0.37589  0.57391  0.64078  1.0000
  H   H62       1.0  0.41303  0.52128  0.66150  1.0000
  Cu  Cu15      1.0  0.34552  0.61695  0.64043  1.0000
  C   C219      1.0  0.59250  0.47447  0.70654  1.0000
  C   C220      1.0  0.60760  0.45313  0.72789  1.0000
  C   C221      1.0  0.62823  0.42397  0.72011  1.0000
  C   C222      1.0  0.63382  0.41608  0.69096  1.0000
  C   C223      1.0  0.61869  0.43747  0.66952  1.0000
  C   C224      1.0  0.59805  0.46662  0.67738  1.0000
  O   O93       1.0  0.57225  0.50307  0.71418  1.0000
  O   O94       1.0  0.60215  0.46082  0.75649  1.0000
  H   H63       1.0  0.63938  0.40821  0.73595  1.0000
  O   O95       1.0  0.65411  0.38741  0.68341  1.0000
  O   O96       1.0  0.62406  0.42988  0.64083  1.0000
  H   H64       1.0  0.58688  0.48242  0.66157  1.0000
  Cu  Cu16      1.0  0.65447  0.38691  0.64045  1.0000
  C   C225      1.0  0.99990  0.96339  0.25510  1.0000
  C   C226      1.0  0.97620  0.98280  0.25509  1.0000
  C   C227      1.0  0.97620  0.02163  0.25510  1.0000
  C   C228      1.0  0.99990  0.04106  0.25511  1.0000
  C   C229      1.0  0.02377  0.02164  0.25512  1.0000
  C   C230      1.0  0.02378  0.98281  0.25512  1.0000
  H   H65       1.0  0.99990  0.93426  0.25510  1.0000
  O   O97       1.0  0.95480  0.96531  0.25508  1.0000
  O   O98       1.0  0.95479  0.03910  0.25509  1.0000
  H   H66       1.0  0.99990  0.07018  0.25511  1.0000
  O   O99       1.0  0.04517  0.03913  0.25513  1.0000
  O   O100      1.0  0.04519  0.96534  0.25512  1.0000
  C   C231      1.0  0.00010  0.96303  0.75512  1.0000
  C   C232      1.0  0.02381  0.98248  0.75513  1.0000
  C   C233      1.0  0.02378  0.02132  0.75513  1.0000
  C   C234      1.0  0.99990  0.04070  0.75512  1.0000
  C   C235      1.0  0.97621  0.02125  0.75511  1.0000
  C   C236      1.0  0.97624  0.98242  0.75510  1.0000
  H   H67       1.0  0.00010  0.93390  0.75511  1.0000
  O   O101      1.0  0.04523  0.96503  0.75514  1.0000
  O   O102      1.0  0.04518  0.03882  0.75515  1.0000
  H   H68       1.0  0.99990  0.06983  0.75512  1.0000
  O   O103      1.0  0.95479  0.03870  0.75509  1.0000
  O   O104      1.0  0.95484  0.96491  0.75509  1.0000
  C   C237      1.0  0.49999  0.46346  0.25512  1.0000
  C   C238      1.0  0.47621  0.48291  0.25511  1.0000
  C   C239      1.0  0.47624  0.52174  0.25511  1.0000
  C   C240      1.0  0.50003  0.54113  0.25512  1.0000
  C   C241      1.0  0.52381  0.52168  0.25514  1.0000
  C   C242      1.0  0.52378  0.48285  0.25513  1.0000
  H   H69       1.0  0.49997  0.43433  0.25512  1.0000
  O   O105      1.0  0.45479  0.46546  0.25509  1.0000
  O   O106      1.0  0.45484  0.53924  0.25510  1.0000
  H   H70       1.0  0.50005  0.57026  0.25513  1.0000
  O   O107      1.0  0.54522  0.53913  0.25515  1.0000
  O   O108      1.0  0.54518  0.46535  0.25514  1.0000
  C   C243      1.0  0.49998  0.46295  0.75511  1.0000
  C   C244      1.0  0.52377  0.48236  0.75513  1.0000
  C   C245      1.0  0.52378  0.52119  0.75513  1.0000
  C   C246      1.0  0.49999  0.54062  0.75511  1.0000
  C   C247      1.0  0.47620  0.52121  0.75509  1.0000
  C   C248      1.0  0.47620  0.48238  0.75509  1.0000
  H   H71       1.0  0.49997  0.43382  0.75511  1.0000
  O   O109      1.0  0.54517  0.46487  0.75514  1.0000
  O   O110      1.0  0.54519  0.53866  0.75515  1.0000
  H   H72       1.0  0.50000  0.56975  0.75511  1.0000
  O   O111      1.0  0.45480  0.53870  0.75508  1.0000
  O   O112      1.0  0.45479  0.46491  0.75507  1.0000
