data_image0
_chemical_formula_structural       C7NCNCNC3NCNC11NCNC7NHO2H2O2H2O2H2O2HNiC7NCNCNC3NCNC11NCNC7NHO2H2O2H2O2H2O2HNiC7NCNCNC3NCNC11NCNC7NHO2H2O2H2O2H2O2HNiC7NCNCNC3NCNC11NCNC7NHO2H2O2H2O2H2O2HNiFe8C6HO2HO2C6HO2HO2C6HO2HO2C6HO2HO2
_chemical_formula_sum              "C152 N32 H40 O48 Ni4 Fe8"
_cell_length_a       34.2449
_cell_length_b       19.3128
_cell_length_c       27.3194
_cell_angle_alpha    90.0002
_cell_angle_beta     89.9966
_cell_angle_gamma    89.9985

_space_group_name_H-M_alt    "P 1"
_space_group_IT_number       1

loop_
  _space_group_symop_operation_xyz
  'x, y, z'

loop_
  _atom_site_type_symbol
  _atom_site_label
  _atom_site_symmetry_multiplicity
  _atom_site_fract_x
  _atom_site_fract_y
  _atom_site_fract_z
  _atom_site_occupancy
  C   C1        1.0  0.31229  0.35784  0.81215  1.0000
  C   C2        1.0  0.34315  0.41279  0.79779  1.0000
  C   C3        1.0  0.36577  0.45324  0.83806  1.0000
  C   C4        1.0  0.35763  0.43897  0.89289  1.0000
  C   C5        1.0  0.32685  0.38420  0.90533  1.0000
  C   C6        1.0  0.30525  0.34546  0.86681  1.0000
  C   C7        1.0  0.27722  0.29566  0.89248  1.0000
  N   N1        1.0  0.28102  0.30273  0.94816  1.0000
  C   C8        1.0  0.31234  0.35859  0.95507  1.0000
  N   N2        1.0  0.32766  0.38620  0.00151  1.0000
  C   C9        1.0  0.31223  0.35878  0.04796  1.0000
  N   N3        1.0  0.28091  0.30292  0.05486  1.0000
  C   C10       1.0  0.27705  0.29591  0.11054  1.0000
  C   C11       1.0  0.30502  0.34581  0.13621  1.0000
  C   C12       1.0  0.32668  0.38448  0.09771  1.0000
  N   N4        1.0  0.22078  0.19611  0.05485  1.0000
  C   C13       1.0  0.22475  0.20285  0.11054  1.0000
  N   N5        1.0  0.25099  0.24922  0.13793  1.0000
  C   C14       1.0  0.19663  0.15320  0.13620  1.0000
  C   C15       1.0  0.17479  0.11490  0.09768  1.0000
  C   C16       1.0  0.18924  0.14064  0.04794  1.0000
  C   C17       1.0  0.35747  0.43922  0.11017  1.0000
  C   C18       1.0  0.36555  0.45353  0.16500  1.0000
  C   C19       1.0  0.34285  0.41319  0.20525  1.0000
  C   C20       1.0  0.31200  0.35823  0.19088  1.0000
  C   C21       1.0  0.14390  0.06032  0.11011  1.0000
  C   C22       1.0  0.13589  0.04580  0.16492  1.0000
  C   C23       1.0  0.15870  0.08590  0.20519  1.0000
  C   C24       1.0  0.18967  0.14066  0.19086  1.0000
  N   N6        1.0  0.22075  0.19618  0.94816  1.0000
  C   C25       1.0  0.18920  0.14072  0.95507  1.0000
  N   N7        1.0  0.17366  0.11349  0.00151  1.0000
  C   C26       1.0  0.17473  0.11504  0.90534  1.0000
  C   C27       1.0  0.19659  0.15331  0.86682  1.0000
  C   C28       1.0  0.22475  0.20290  0.89248  1.0000
  C   C29       1.0  0.18957  0.14087  0.81216  1.0000
  C   C30       1.0  0.15851  0.08627  0.79783  1.0000
  C   C31       1.0  0.13570  0.04615  0.83812  1.0000
  C   C32       1.0  0.14380  0.06052  0.89293  1.0000
  N   N8        1.0  0.25109  0.24910  0.86510  1.0000
  H   H1        1.0  0.29677  0.33010  0.78542  1.0000
  O   O1        1.0  0.35019  0.42520  0.75186  1.0000
  O   O2        1.0  0.39164  0.49924  0.82561  1.0000
  H   H2        1.0  0.37264  0.46583  0.92051  1.0000
  H   H3        1.0  0.37253  0.46602  0.08257  1.0000
  O   O3        1.0  0.39145  0.49947  0.17748  1.0000
  O   O4        1.0  0.34981  0.42569  0.25119  1.0000
  H   H4        1.0  0.29644  0.33054  0.21759  1.0000
  H   H5        1.0  0.12875  0.03372  0.08249  1.0000
  O   O5        1.0  0.10998  0.99990  0.17736  1.0000
  O   O6        1.0  0.15173  0.07333  0.25112  1.0000
  H   H6        1.0  0.20530  0.16816  0.21760  1.0000
  H   H7        1.0  0.20521  0.16836  0.78542  1.0000
  O   O7        1.0  0.15143  0.07389  0.75191  1.0000
  O   O8        1.0  0.10973  0.00010  0.82568  1.0000
  H   H8        1.0  0.12866  0.03393  0.92056  1.0000
  Ni  Ni1       1.0  0.25091  0.24940  0.00150  1.0000
  C   C33       1.0  0.81022  0.86361  0.19089  1.0000
  C   C34       1.0  0.84121  0.91831  0.20525  1.0000
  C   C35       1.0  0.86404  0.95842  0.16498  1.0000
  C   C36       1.0  0.85599  0.94400  0.11015  1.0000
  C   C37       1.0  0.82510  0.88944  0.09771  1.0000
  C   C38       1.0  0.80324  0.85113  0.13622  1.0000
  C   C39       1.0  0.77515  0.80146  0.11055  1.0000
  N   N9        1.0  0.77914  0.80821  0.05487  1.0000
  C   C40       1.0  0.81066  0.86373  0.04796  1.0000
  N   N10       1.0  0.82624  0.89089  0.00152  1.0000
  C   C41       1.0  0.81077  0.86354  0.95508  1.0000
  N   N11       1.0  0.77926  0.80802  0.94817  1.0000
  C   C42       1.0  0.77531  0.80119  0.89249  1.0000
  C   C43       1.0  0.80346  0.85077  0.86682  1.0000
  C   C44       1.0  0.82527  0.88916  0.90533  1.0000
  N   N12       1.0  0.71901  0.70142  0.94817  1.0000
  C   C45       1.0  0.72282  0.70848  0.89248  1.0000
  N   N13       1.0  0.74898  0.75499  0.86509  1.0000
  C   C46       1.0  0.69481  0.65864  0.86682  1.0000
  C   C47       1.0  0.67320  0.61990  0.90534  1.0000
  C   C48       1.0  0.68772  0.64551  0.95507  1.0000
  C   C49       1.0  0.85615  0.94374  0.89287  1.0000
  C   C50       1.0  0.86423  0.95808  0.83804  1.0000
  C   C51       1.0  0.84148  0.91784  0.79778  1.0000
  C   C52       1.0  0.81048  0.86316  0.81216  1.0000
  C   C53       1.0  0.64241  0.56515  0.89290  1.0000
  C   C54       1.0  0.63423  0.55096  0.83809  1.0000
  C   C55       1.0  0.65685  0.59141  0.79782  1.0000
  C   C56       1.0  0.68774  0.64629  0.81216  1.0000
  N   N14       1.0  0.71904  0.70136  0.05486  1.0000
  C   C57       1.0  0.68775  0.64544  0.04794  1.0000
  N   N15       1.0  0.67240  0.61788  0.00151  1.0000
  C   C58       1.0  0.67326  0.61977  0.09767  1.0000
  C   C59       1.0  0.69485  0.65852  0.13620  1.0000
  C   C60       1.0  0.72283  0.70844  0.11054  1.0000
  C   C61       1.0  0.68783  0.64606  0.19085  1.0000
  C   C62       1.0  0.65702  0.59099  0.20518  1.0000
  C   C63       1.0  0.63439  0.55058  0.16489  1.0000
  C   C64       1.0  0.64251  0.56495  0.11008  1.0000
  N   N16       1.0  0.74888  0.75513  0.13793  1.0000
  H   H9        1.0  0.79457  0.83609  0.21761  1.0000
  O   O9        1.0  0.84821  0.93079  0.25118  1.0000
  O   O10       1.0  0.88999  0.00428  0.17744  1.0000
  H   H10       1.0  0.87115  0.97061  0.08253  1.0000
  H   H11       1.0  0.87127  0.97044  0.92047  1.0000
  O   O11       1.0  0.89015  0.00399  0.82557  1.0000
  O   O12       1.0  0.84854  0.93018  0.75185  1.0000
  H   H12       1.0  0.79486  0.83558  0.78544  1.0000
  H   H13       1.0  0.62741  0.53829  0.92052  1.0000
  O   O13       1.0  0.60831  0.50504  0.82565  1.0000
  O   O14       1.0  0.64977  0.57906  0.75189  1.0000
  H   H14       1.0  0.70326  0.67401  0.78542  1.0000
  H   H15       1.0  0.70333  0.67379  0.21759  1.0000
  O   O15       1.0  0.65004  0.57844  0.25110  1.0000
  O   O16       1.0  0.60854  0.50453  0.17733  1.0000
  H   H16       1.0  0.62751  0.53810  0.08245  1.0000
  Ni  Ni2       1.0  0.74907  0.75484  0.00152  1.0000
  C   C65       1.0  0.31076  0.64153  0.69090  1.0000
  C   C66       1.0  0.34162  0.58659  0.70526  1.0000
  C   C67       1.0  0.36425  0.54612  0.66499  1.0000
  C   C68       1.0  0.35610  0.56037  0.61016  1.0000
  C   C69       1.0  0.32533  0.61514  0.59772  1.0000
  C   C70       1.0  0.30372  0.65389  0.63623  1.0000
  C   C71       1.0  0.27569  0.70369  0.61056  1.0000
  N   N17       1.0  0.27950  0.69660  0.55488  1.0000
  C   C72       1.0  0.31081  0.64073  0.54797  1.0000
  N   N18       1.0  0.32613  0.61310  0.50153  1.0000
  C   C73       1.0  0.31070  0.64051  0.45509  1.0000
  N   N19       1.0  0.27938  0.69637  0.44818  1.0000
  C   C74       1.0  0.27552  0.70336  0.39250  1.0000
  C   C75       1.0  0.30349  0.65345  0.36683  1.0000
  C   C76       1.0  0.32515  0.61479  0.40534  1.0000
  N   N20       1.0  0.21925  0.80319  0.44818  1.0000
  C   C77       1.0  0.22322  0.79642  0.39249  1.0000
  N   N21       1.0  0.24946  0.75004  0.36510  1.0000
  C   C78       1.0  0.19510  0.84606  0.36683  1.0000
  C   C79       1.0  0.17326  0.88438  0.40534  1.0000
  C   C80       1.0  0.18771  0.85866  0.45508  1.0000
  C   C81       1.0  0.35594  0.56005  0.39288  1.0000
  C   C82       1.0  0.36402  0.54572  0.33805  1.0000
  C   C83       1.0  0.34132  0.58604  0.29780  1.0000
  C   C84       1.0  0.31047  0.64101  0.31217  1.0000
  C   C85       1.0  0.14237  0.93896  0.39291  1.0000
  C   C86       1.0  0.13436  0.95346  0.33810  1.0000
  C   C87       1.0  0.15717  0.91335  0.29783  1.0000
  C   C88       1.0  0.18813  0.85859  0.31217  1.0000
  N   N22       1.0  0.21922  0.80316  0.55487  1.0000
  C   C89       1.0  0.18767  0.85861  0.54795  1.0000
  N   N23       1.0  0.17213  0.88582  0.50152  1.0000
  C   C90       1.0  0.17320  0.88431  0.59768  1.0000
  C   C91       1.0  0.19506  0.84605  0.63621  1.0000
  C   C92       1.0  0.22322  0.79645  0.61055  1.0000
  C   C93       1.0  0.18804  0.85851  0.69086  1.0000
  C   C94       1.0  0.15697  0.91312  0.70519  1.0000
  C   C95       1.0  0.13417  0.95323  0.66490  1.0000
  C   C96       1.0  0.14227  0.93883  0.61008  1.0000
  N   N24       1.0  0.24956  0.75026  0.63794  1.0000
  H   H17       1.0  0.29524  0.66928  0.71762  1.0000
  O   O17       1.0  0.34866  0.57419  0.75119  1.0000
  O   O18       1.0  0.39012  0.50013  0.67745  1.0000
  H   H18       1.0  0.37111  0.53350  0.58255  1.0000
  H   H19       1.0  0.37100  0.53325  0.42048  1.0000
  O   O19       1.0  0.38992  0.49977  0.32558  1.0000
  O   O20       1.0  0.34828  0.57352  0.25186  1.0000
  H   H20       1.0  0.29491  0.66869  0.28545  1.0000
  H   H21       1.0  0.12722  0.96557  0.42053  1.0000
  O   O21       1.0  0.10845  0.99990  0.32565  1.0000
  O   O22       1.0  0.15020  0.92589  0.25190  1.0000
  H   H22       1.0  0.20377  0.83107  0.28543  1.0000
  H   H23       1.0  0.20368  0.83103  0.71760  1.0000
  O   O23       1.0  0.14990  0.92551  0.75111  1.0000
  O   O24       1.0  0.10820  0.99990  0.67733  1.0000
  H   H24       1.0  0.12713  0.96542  0.58245  1.0000
  Ni  Ni3       1.0  0.24938  0.74991  0.50153  1.0000
  C   C97       1.0  0.68924  0.36276  0.69088  1.0000
  C   C98       1.0  0.65838  0.41771  0.70523  1.0000
  C   C99       1.0  0.63576  0.45817  0.66496  1.0000
  C   C100      1.0  0.64390  0.44390  0.61013  1.0000
  C   C101      1.0  0.67467  0.38912  0.59769  1.0000
  C   C102      1.0  0.69628  0.35039  0.63621  1.0000
  C   C103      1.0  0.72431  0.30058  0.61054  1.0000
  N   N25       1.0  0.72050  0.30766  0.55486  1.0000
  C   C104      1.0  0.68919  0.36352  0.54795  1.0000
  N   N26       1.0  0.67387  0.39114  0.50151  1.0000
  C   C105      1.0  0.68930  0.36371  0.45507  1.0000
  N   N27       1.0  0.72062  0.30785  0.44817  1.0000
  C   C106      1.0  0.72448  0.30084  0.39248  1.0000
  C   C107      1.0  0.69651  0.35074  0.36681  1.0000
  C   C108      1.0  0.67485  0.38941  0.40532  1.0000
  N   N28       1.0  0.78075  0.20103  0.44817  1.0000
  C   C109      1.0  0.77678  0.20778  0.39248  1.0000
  N   N29       1.0  0.75054  0.25415  0.36509  1.0000
  C   C110      1.0  0.80490  0.15813  0.36682  1.0000
  C   C111      1.0  0.82674  0.11982  0.40534  1.0000
  C   C112      1.0  0.81229  0.14556  0.45508  1.0000
  C   C113      1.0  0.64406  0.44415  0.39285  1.0000
  C   C114      1.0  0.63598  0.45847  0.33802  1.0000
  C   C115      1.0  0.65868  0.41813  0.29777  1.0000
  C   C116      1.0  0.68953  0.36317  0.31215  1.0000
  C   C117      1.0  0.85763  0.06524  0.39291  1.0000
  C   C118      1.0  0.86564  0.05072  0.33810  1.0000
  C   C119      1.0  0.84283  0.09082  0.29783  1.0000
  C   C120      1.0  0.81187  0.14559  0.31216  1.0000
  N   N30       1.0  0.78078  0.20110  0.55486  1.0000
  C   C121      1.0  0.81233  0.14564  0.54795  1.0000
  N   N31       1.0  0.82787  0.11841  0.50151  1.0000
  C   C122      1.0  0.82680  0.11995  0.59768  1.0000
  C   C123      1.0  0.80494  0.15823  0.63620  1.0000
  C   C124      1.0  0.77678  0.20782  0.61054  1.0000
  C   C125      1.0  0.81196  0.14579  0.69086  1.0000
  C   C126      1.0  0.84302  0.09118  0.70519  1.0000
  C   C127      1.0  0.86582  0.05106  0.66490  1.0000
  C   C128      1.0  0.85773  0.06544  0.61009  1.0000
  N   N32       1.0  0.75044  0.25402  0.63792  1.0000
  H   H25       1.0  0.70476  0.33503  0.71760  1.0000
  O   O25       1.0  0.65134  0.43013  0.75116  1.0000
  O   O26       1.0  0.60988  0.50417  0.67742  1.0000
  H   H26       1.0  0.62889  0.47076  0.58252  1.0000
  H   H27       1.0  0.62900  0.47096  0.42045  1.0000
  O   O27       1.0  0.61008  0.50441  0.32555  1.0000
  O   O28       1.0  0.65172  0.43063  0.25184  1.0000
  H   H28       1.0  0.70509  0.33548  0.28543  1.0000
  H   H29       1.0  0.87278  0.03864  0.42053  1.0000
  O   O29       1.0  0.89155  0.00477  0.32566  1.0000
  O   O30       1.0  0.84980  0.07826  0.25190  1.0000
  H   H30       1.0  0.79623  0.17309  0.28542  1.0000
  H   H31       1.0  0.79632  0.17328  0.71760  1.0000
  O   O31       1.0  0.85010  0.07880  0.75111  1.0000
  O   O32       1.0  0.89180  0.00524  0.67734  1.0000
  H   H32       1.0  0.87287  0.03885  0.58246  1.0000
  Ni  Ni4       1.0  0.75062  0.25433  0.50152  1.0000
  Fe  Fe1       1.0  0.10897  0.00010  0.25152  1.0000
  Fe  Fe2       1.0  0.89102  0.00312  0.25154  1.0000
  Fe  Fe3       1.0  0.89101  0.00314  0.75147  1.0000
  Fe  Fe4       1.0  0.10896  0.00106  0.75150  1.0000
  Fe  Fe5       1.0  0.60896  0.50308  0.25146  1.0000
  Fe  Fe6       1.0  0.39100  0.50096  0.25152  1.0000
  Fe  Fe7       1.0  0.39102  0.50108  0.75154  1.0000
  Fe  Fe8       1.0  0.60896  0.50321  0.75153  1.0000
  C   C129      1.0  0.99990  0.92956  0.25154  1.0000
  C   C130      1.0  0.96448  0.96615  0.25154  1.0000
  C   C131      1.0  0.96470  0.03864  0.25153  1.0000
  C   C132      1.0  0.00010  0.07454  0.25152  1.0000
  C   C133      1.0  0.03551  0.03795  0.25152  1.0000
  C   C134      1.0  0.03529  0.96546  0.25153  1.0000
  H   H33       1.0  0.99990  0.87520  0.25155  1.0000
  O   O33       1.0  0.93251  0.93384  0.25155  1.0000
  O   O34       1.0  0.93294  0.07157  0.25154  1.0000
  H   H34       1.0  0.00010  0.12891  0.25152  1.0000
  O   O35       1.0  0.06747  0.07026  0.25151  1.0000
  O   O36       1.0  0.06705  0.93253  0.25153  1.0000
  C   C135      1.0  0.99990  0.92961  0.75149  1.0000
  C   C136      1.0  0.03528  0.96552  0.75150  1.0000
  C   C137      1.0  0.03549  0.03801  0.75149  1.0000
  C   C138      1.0  0.00010  0.07459  0.75148  1.0000
  C   C139      1.0  0.96469  0.03868  0.75148  1.0000
  C   C140      1.0  0.96447  0.96619  0.75148  1.0000
  H   H35       1.0  0.99990  0.87524  0.75150  1.0000
  O   O37       1.0  0.06704  0.93260  0.75150  1.0000
  O   O38       1.0  0.06746  0.07033  0.75149  1.0000
  H   H36       1.0  0.00010  0.12896  0.75148  1.0000
  O   O39       1.0  0.93292  0.07160  0.75147  1.0000
  O   O40       1.0  0.93251  0.93387  0.75148  1.0000
  C   C141      1.0  0.50021  0.42952  0.25150  1.0000
  C   C142      1.0  0.46469  0.46542  0.25151  1.0000
  C   C143      1.0  0.46447  0.53791  0.25150  1.0000
  C   C144      1.0  0.49976  0.57450  0.25148  1.0000
  C   C145      1.0  0.53528  0.53860  0.25147  1.0000
  C   C146      1.0  0.53550  0.46611  0.25148  1.0000
  H   H37       1.0  0.50037  0.37515  0.25150  1.0000
  O   O41       1.0  0.43293  0.43250  0.25152  1.0000
  O   O42       1.0  0.43250  0.57023  0.25151  1.0000
  H   H38       1.0  0.49959  0.62887  0.25148  1.0000
  O   O43       1.0  0.56704  0.57153  0.25146  1.0000
  O   O44       1.0  0.56746  0.43380  0.25147  1.0000
  C   C147      1.0  0.50022  0.42966  0.75154  1.0000
  C   C148      1.0  0.53551  0.46625  0.75154  1.0000
  C   C149      1.0  0.53528  0.53874  0.75153  1.0000
  C   C150      1.0  0.49977  0.57464  0.75153  1.0000
  C   C151      1.0  0.46447  0.53805  0.75154  1.0000
  C   C152      1.0  0.46470  0.46556  0.75154  1.0000
  H   H39       1.0  0.50039  0.37529  0.75154  1.0000
  O   O45       1.0  0.56747  0.43394  0.75153  1.0000
  O   O46       1.0  0.56705  0.57167  0.75153  1.0000
  H   H40       1.0  0.49960  0.62900  0.75153  1.0000
  O   O47       1.0  0.43251  0.57036  0.75154  1.0000
  O   O48       1.0  0.43294  0.43263  0.75155  1.0000
