data_image0
_chemical_formula_structural       C6O6C6O6C6O6C6O6C7NCNCNC3NCNC11NCNC7NH8C16HO2H2O2H2O2H2O2HNiC7NCNCNC3NCNC11NCNC7NH8C16HO2H2O2H2O2H2O2HNiZn4Cu6
_chemical_formula_sum              "C120 O40 N16 H32 Ni2 Zn4 Cu6"
_cell_length_a       12.827
_cell_length_b       72.3684
_cell_length_c       25.0712
_cell_angle_alpha    90.2264
_cell_angle_beta     90
_cell_angle_gamma    90

_space_group_name_H-M_alt    "P 1"
_space_group_IT_number       1

loop_
  _space_group_symop_operation_xyz
  'x, y, z'

loop_
  _atom_site_type_symbol
  _atom_site_label
  _atom_site_symmetry_multiplicity
  _atom_site_fract_x
  _atom_site_fract_y
  _atom_site_fract_z
  _atom_site_occupancy
  C   C1        1.0  0.89096  0.29518  0.01882  1.0000
  C   C2        1.0  0.94553  0.31193  0.01845  1.0000
  C   C3        1.0  0.05467  0.31193  0.01845  1.0000
  C   C4        1.0  0.10924  0.29518  0.01882  1.0000
  C   C5        1.0  0.05467  0.27843  0.01920  1.0000
  C   C6        1.0  0.94553  0.27843  0.01920  1.0000
  O   O1        1.0  0.79273  0.29518  0.01882  1.0000
  O   O2        1.0  0.89642  0.32701  0.01811  1.0000
  O   O3        1.0  0.10379  0.32701  0.01811  1.0000
  O   O4        1.0  0.20748  0.29518  0.01882  1.0000
  O   O5        1.0  0.10379  0.26335  0.01954  1.0000
  O   O6        1.0  0.89641  0.26335  0.01954  1.0000
  C   C7        1.0  0.89096  0.74401  0.01762  1.0000
  C   C8        1.0  0.94553  0.72725  0.01718  1.0000
  C   C9        1.0  0.05467  0.72725  0.01718  1.0000
  C   C10       1.0  0.10924  0.74401  0.01762  1.0000
  C   C11       1.0  0.05467  0.76076  0.01807  1.0000
  C   C12       1.0  0.94553  0.76076  0.01807  1.0000
  O   O7        1.0  0.79273  0.74401  0.01762  1.0000
  O   O8        1.0  0.89642  0.71218  0.01678  1.0000
  O   O9        1.0  0.10379  0.71218  0.01678  1.0000
  O   O10       1.0  0.20748  0.74401  0.01762  1.0000
  O   O11       1.0  0.10379  0.77584  0.01847  1.0000
  O   O12       1.0  0.89641  0.77584  0.01847  1.0000
  C   C13       1.0  0.39086  0.79519  0.02555  1.0000
  C   C14       1.0  0.44543  0.81194  0.02600  1.0000
  C   C15       1.0  0.55457  0.81194  0.02600  1.0000
  C   C16       1.0  0.60914  0.79519  0.02555  1.0000
  C   C17       1.0  0.55457  0.77843  0.02510  1.0000
  C   C18       1.0  0.44543  0.77843  0.02510  1.0000
  O   O13       1.0  0.29263  0.79519  0.02555  1.0000
  O   O14       1.0  0.39632  0.82702  0.02640  1.0000
  O   O15       1.0  0.60369  0.82702  0.02640  1.0000
  O   O16       1.0  0.70738  0.79519  0.02555  1.0000
  O   O17       1.0  0.60369  0.76336  0.02470  1.0000
  O   O18       1.0  0.39631  0.76336  0.02470  1.0000
  C   C19       1.0  0.39086  0.24401  0.02442  1.0000
  C   C20       1.0  0.44543  0.22726  0.02480  1.0000
  C   C21       1.0  0.55458  0.22726  0.02480  1.0000
  C   C22       1.0  0.60915  0.24401  0.02442  1.0000
  C   C23       1.0  0.55457  0.26077  0.02405  1.0000
  C   C24       1.0  0.44543  0.26077  0.02405  1.0000
  O   O19       1.0  0.29263  0.24401  0.02442  1.0000
  O   O20       1.0  0.39632  0.21218  0.02514  1.0000
  O   O21       1.0  0.60369  0.21218  0.02514  1.0000
  O   O22       1.0  0.70738  0.24401  0.02442  1.0000
  O   O23       1.0  0.60369  0.27584  0.02371  1.0000
  O   O24       1.0  0.39632  0.27584  0.02371  1.0000
  C   C25       1.0  0.00010  0.43886  0.95615  1.0000
  C   C26       1.0  0.00010  0.42046  0.98741  1.0000
  C   C27       1.0  0.00010  0.42050  0.04926  1.0000
  C   C28       1.0  0.00010  0.43893  0.08038  1.0000
  C   C29       1.0  0.00010  0.45682  0.04801  1.0000
  C   C30       1.0  0.00010  0.45679  0.98837  1.0000
  C   C31       1.0  0.00010  0.47691  0.96960  1.0000
  N   N1        1.0  0.00010  0.48961  0.01820  1.0000
  C   C32       1.0  0.00010  0.47697  0.06679  1.0000
  N   N2        1.0  0.00010  0.48288  0.12454  1.0000
  C   C33       1.0  0.00010  0.50287  0.14152  1.0000
  N   N3        1.0  0.00010  0.51969  0.10496  1.0000
  C   C34       1.0  0.00010  0.53653  0.14150  1.0000
  C   C35       1.0  0.00010  0.53003  0.19958  1.0000
  C   C36       1.0  0.00010  0.50939  0.19965  1.0000
  N   N4        1.0  0.00010  0.54964  0.01846  1.0000
  C   C37       1.0  0.00010  0.56231  0.06699  1.0000
  N   N5        1.0  0.00010  0.55648  0.12458  1.0000
  C   C38       1.0  0.00010  0.58243  0.04820  1.0000
  C   C39       1.0  0.00010  0.58242  0.98862  1.0000
  C   C40       1.0  0.00010  0.56228  0.96988  1.0000
  C   C41       1.0  0.00010  0.49821  0.25133  1.0000
  C   C42       1.0  0.00010  0.50897  0.30445  1.0000
  C   C43       1.0  0.00010  0.53037  0.30443  1.0000
  C   C44       1.0  0.00010  0.54119  0.25128  1.0000
  C   C45       1.0  0.00010  0.60032  0.95628  1.0000
  C   C46       1.0  0.00010  0.61875  0.98732  1.0000
  C   C47       1.0  0.00010  0.61875  0.04910  1.0000
  C   C48       1.0  0.00010  0.60035  0.08036  1.0000
  N   N6        1.0  0.00010  0.51955  0.93167  1.0000
  C   C49       1.0  0.00010  0.53637  0.89517  1.0000
  N   N7        1.0  0.00010  0.55637  0.91221  1.0000
  C   C50       1.0  0.00010  0.52986  0.83702  1.0000
  C   C51       1.0  0.00010  0.50920  0.83702  1.0000
  C   C52       1.0  0.00010  0.50271  0.89510  1.0000
  C   C53       1.0  0.00010  0.49803  0.78529  1.0000
  C   C54       1.0  0.00010  0.50884  0.73211  1.0000
  C   C55       1.0  0.00010  0.53026  0.73215  1.0000
  C   C56       1.0  0.00010  0.54105  0.78536  1.0000
  N   N8        1.0  0.00010  0.48273  0.91199  1.0000
  H   H1        1.0  0.00010  0.43906  0.91088  1.0000
  H   H2        1.0  0.00010  0.43918  0.12569  1.0000
  H   H3        1.0  0.00010  0.48252  0.25070  1.0000
  H   H4        1.0  0.00010  0.55687  0.25064  1.0000
  H   H5        1.0  0.00010  0.60009  0.91103  1.0000
  H   H6        1.0  0.00010  0.60013  0.12563  1.0000
  H   H7        1.0  0.00010  0.48234  0.78590  1.0000
  H   H8        1.0  0.00010  0.55675  0.78603  1.0000
  C   C57       1.0  0.00010  0.49833  0.67892  1.0000
  C   C58       1.0  0.00010  0.50900  0.62587  1.0000
  C   C59       1.0  0.00010  0.53018  0.62590  1.0000
  C   C60       1.0  0.00010  0.54081  0.67898  1.0000
  C   C61       1.0  0.00010  0.40199  0.95713  1.0000
  C   C62       1.0  0.00010  0.38362  0.98795  1.0000
  C   C63       1.0  0.00010  0.38366  0.04909  1.0000
  C   C64       1.0  0.00010  0.40206  0.07972  1.0000
  C   C65       1.0  0.00010  0.49842  0.35768  1.0000
  C   C66       1.0  0.00010  0.50905  0.41070  1.0000
  C   C67       1.0  0.00010  0.53023  0.41065  1.0000
  C   C68       1.0  0.00010  0.54088  0.35759  1.0000
  C   C69       1.0  0.00010  0.63717  0.95683  1.0000
  C   C70       1.0  0.00010  0.65554  0.98739  1.0000
  C   C71       1.0  0.00010  0.65556  0.04847  1.0000
  C   C72       1.0  0.00010  0.63719  0.07929  1.0000
  H   H9        1.0  0.00010  0.48264  0.67879  1.0000
  O   O25       1.0  0.00010  0.49871  0.57410  1.0000
  O   O26       1.0  0.00010  0.54051  0.57414  1.0000
  H   H10       1.0  0.00010  0.55651  0.67885  1.0000
  H   H11       1.0  0.00010  0.40193  0.91184  1.0000
  O   O27       1.0  0.00010  0.36567  0.95832  1.0000
  O   O28       1.0  0.00010  0.36573  0.07896  1.0000
  H   H12       1.0  0.00010  0.40203  0.12501  1.0000
  H   H13       1.0  0.00010  0.48275  0.35784  1.0000
  O   O29       1.0  0.00010  0.49874  0.46249  1.0000
  O   O30       1.0  0.00010  0.54048  0.46238  1.0000
  H   H14       1.0  0.00010  0.55655  0.35768  1.0000
  H   H15       1.0  0.00010  0.63721  0.91162  1.0000
  O   O31       1.0  0.00010  0.67347  0.95761  1.0000
  O   O32       1.0  0.00010  0.67348  0.07806  1.0000
  H   H16       1.0  0.00010  0.63724  0.12454  1.0000
  Ni  Ni1       1.0  0.00010  0.51962  0.01833  1.0000
  C   C73       1.0  0.50000  0.93887  0.96290  1.0000
  C   C74       1.0  0.50000  0.92047  0.99416  1.0000
  C   C75       1.0  0.50000  0.92051  0.05602  1.0000
  C   C76       1.0  0.50000  0.93894  0.08714  1.0000
  C   C77       1.0  0.50000  0.95683  0.05477  1.0000
  C   C78       1.0  0.50000  0.95680  0.99513  1.0000
  C   C79       1.0  0.50000  0.97692  0.97636  1.0000
  N   N9        1.0  0.50000  0.98962  0.02496  1.0000
  C   C80       1.0  0.50000  0.97698  0.07355  1.0000
  N   N10       1.0  0.50000  0.98289  0.13131  1.0000
  C   C81       1.0  0.50000  0.00288  0.14828  1.0000
  N   N11       1.0  0.50000  0.01970  0.11173  1.0000
  C   C82       1.0  0.50000  0.03653  0.14826  1.0000
  C   C83       1.0  0.50000  0.03004  0.20634  1.0000
  C   C84       1.0  0.50000  0.00940  0.20641  1.0000
  N   N12       1.0  0.50000  0.04965  0.02523  1.0000
  C   C85       1.0  0.50000  0.06231  0.07376  1.0000
  N   N13       1.0  0.50000  0.05648  0.13135  1.0000
  C   C86       1.0  0.50000  0.08244  0.05497  1.0000
  C   C87       1.0  0.50000  0.08243  0.99539  1.0000
  C   C88       1.0  0.50000  0.06229  0.97665  1.0000
  C   C89       1.0  0.50000  0.99822  0.25809  1.0000
  C   C90       1.0  0.50000  0.00898  0.31122  1.0000
  C   C91       1.0  0.50000  0.03038  0.31120  1.0000
  C   C92       1.0  0.50000  0.04120  0.25805  1.0000
  C   C93       1.0  0.50000  0.10033  0.96305  1.0000
  C   C94       1.0  0.50000  0.11875  0.99409  1.0000
  C   C95       1.0  0.50000  0.11876  0.05587  1.0000
  C   C96       1.0  0.50000  0.10035  0.08713  1.0000
  N   N14       1.0  0.50000  0.01956  0.93843  1.0000
  C   C97       1.0  0.50000  0.03638  0.90194  1.0000
  N   N15       1.0  0.50000  0.05638  0.91897  1.0000
  C   C98       1.0  0.50000  0.02987  0.84378  1.0000
  C   C99       1.0  0.50000  0.00921  0.84379  1.0000
  C   C100      1.0  0.50000  0.00272  0.90187  1.0000
  C   C101      1.0  0.50000  0.99804  0.79205  1.0000
  C   C102      1.0  0.50000  0.00885  0.73887  1.0000
  C   C103      1.0  0.50000  0.03027  0.73891  1.0000
  C   C104      1.0  0.50000  0.04106  0.79213  1.0000
  N   N16       1.0  0.50000  0.98274  0.91875  1.0000
  H   H17       1.0  0.50000  0.93907  0.91763  1.0000
  H   H18       1.0  0.50000  0.93919  0.13245  1.0000
  H   H19       1.0  0.50000  0.98253  0.25746  1.0000
  H   H20       1.0  0.50000  0.05688  0.25741  1.0000
  H   H21       1.0  0.50000  0.10010  0.91780  1.0000
  H   H22       1.0  0.50000  0.10014  0.13240  1.0000
  H   H23       1.0  0.50000  0.98235  0.79266  1.0000
  H   H24       1.0  0.50000  0.05676  0.79279  1.0000
  C   C105      1.0  0.50000  0.99834  0.68568  1.0000
  C   C106      1.0  0.50000  0.00901  0.63263  1.0000
  C   C107      1.0  0.50000  0.03020  0.63266  1.0000
  C   C108      1.0  0.50000  0.04082  0.68575  1.0000
  C   C109      1.0  0.50000  0.90200  0.96388  1.0000
  C   C110      1.0  0.50000  0.88363  0.99470  1.0000
  C   C111      1.0  0.50000  0.88367  0.05584  1.0000
  C   C112      1.0  0.50000  0.90207  0.08648  1.0000
  C   C113      1.0  0.50000  0.99843  0.36444  1.0000
  C   C114      1.0  0.50000  0.00905  0.41747  1.0000
  C   C115      1.0  0.50000  0.03023  0.41741  1.0000
  C   C116      1.0  0.50000  0.04088  0.36436  1.0000
  C   C117      1.0  0.50000  0.13718  0.96360  1.0000
  C   C118      1.0  0.50000  0.15555  0.99417  1.0000
  C   C119      1.0  0.50000  0.15556  0.05525  1.0000
  C   C120      1.0  0.50000  0.13719  0.08606  1.0000
  H   H25       1.0  0.50000  0.98266  0.68556  1.0000
  O   O33       1.0  0.50000  0.99873  0.58086  1.0000
  O   O34       1.0  0.50000  0.04052  0.58090  1.0000
  H   H26       1.0  0.50000  0.05652  0.68562  1.0000
  H   H27       1.0  0.50000  0.90194  0.91860  1.0000
  O   O35       1.0  0.50000  0.86568  0.96507  1.0000
  O   O36       1.0  0.50000  0.86574  0.08571  1.0000
  H   H28       1.0  0.50000  0.90204  0.13176  1.0000
  H   H29       1.0  0.50000  0.98275  0.36460  1.0000
  O   O37       1.0  0.50000  0.99874  0.46926  1.0000
  O   O38       1.0  0.50000  0.04049  0.46915  1.0000
  H   H30       1.0  0.50000  0.05656  0.36445  1.0000
  H   H31       1.0  0.50000  0.13722  0.91840  1.0000
  O   O39       1.0  0.50000  0.17348  0.96439  1.0000
  O   O40       1.0  0.50000  0.17349  0.08484  1.0000
  H   H32       1.0  0.50000  0.13724  0.13132  1.0000
  Ni  Ni2       1.0  0.50000  0.01963  0.02509  1.0000
  Zn  Zn1       1.0  0.00010  0.34636  0.01837  1.0000
  Zn  Zn2       1.0  0.00010  0.69283  0.01730  1.0000
  Zn  Zn3       1.0  0.50000  0.84637  0.02590  1.0000
  Zn  Zn4       1.0  0.50000  0.19284  0.02487  1.0000
  Cu  Cu1       1.0  0.25000  0.26960  0.02162  1.0000
  Cu  Cu2       1.0  0.75010  0.76960  0.02158  1.0000
  Cu  Cu3       1.0  0.25000  0.76960  0.02158  1.0000
  Cu  Cu4       1.0  0.75010  0.26960  0.02162  1.0000
  Cu  Cu5       1.0  0.00010  0.51961  0.51828  1.0000
  Cu  Cu6       1.0  0.50000  0.01962  0.52504  1.0000
