data_image0
_chemical_formula_structural       C6O6C6O6C6O6C6O6C7NCNCNC3NCNC11NCNC7NHO2H2O2H2O2H2O2HNiC7NCNCNC3NCNC11NCNC7NHO2H2O2H2O2H2O2HNiZn4Cu6
_chemical_formula_sum              "C88 O40 N16 H16 Ni2 Zn4 Cu6"
_cell_length_a       12.8299
_cell_length_b       60.7012
_cell_length_c       19.2399
_cell_angle_alpha    90.0089
_cell_angle_beta     90
_cell_angle_gamma    90

_space_group_name_H-M_alt    "P 1"
_space_group_IT_number       1

loop_
  _space_group_symop_operation_xyz
  'x, y, z'

loop_
  _atom_site_type_symbol
  _atom_site_label
  _atom_site_symmetry_multiplicity
  _atom_site_fract_x
  _atom_site_fract_y
  _atom_site_fract_z
  _atom_site_occupancy
  C   C1        1.0  0.89098  0.28404  0.00010  1.0000
  C   C2        1.0  0.94554  0.30401  0.00010  1.0000
  C   C3        1.0  0.05466  0.30401  0.00010  1.0000
  C   C4        1.0  0.10922  0.28404  0.00010  1.0000
  C   C5        1.0  0.05466  0.26407  0.00010  1.0000
  C   C6        1.0  0.94554  0.26407  0.00010  1.0000
  O   O1        1.0  0.79278  0.28404  0.00010  1.0000
  O   O2        1.0  0.89644  0.32199  0.00010  1.0000
  O   O3        1.0  0.10377  0.32199  0.00010  1.0000
  O   O4        1.0  0.20743  0.28404  0.00010  1.0000
  O   O5        1.0  0.10376  0.24609  0.00010  1.0000
  O   O6        1.0  0.89644  0.24609  0.00010  1.0000
  C   C7        1.0  0.89098  0.72302  0.00010  1.0000
  C   C8        1.0  0.94554  0.70305  0.00010  1.0000
  C   C9        1.0  0.05466  0.70305  0.00010  1.0000
  C   C10       1.0  0.10922  0.72302  0.00010  1.0000
  C   C11       1.0  0.05466  0.74300  0.00010  1.0000
  C   C12       1.0  0.94554  0.74300  0.00010  1.0000
  O   O7        1.0  0.79278  0.72302  0.00010  1.0000
  O   O8        1.0  0.89644  0.68507  0.00010  1.0000
  O   O9        1.0  0.10377  0.68507  0.00010  1.0000
  O   O10       1.0  0.20743  0.72302  0.00010  1.0000
  O   O11       1.0  0.10376  0.76097  0.00010  1.0000
  O   O12       1.0  0.89644  0.76097  0.00010  1.0000
  C   C13       1.0  0.39088  0.78404  0.00010  1.0000
  C   C14       1.0  0.44544  0.80401  0.00010  1.0000
  C   C15       1.0  0.55456  0.80401  0.00010  1.0000
  C   C16       1.0  0.60912  0.78404  0.00010  1.0000
  C   C17       1.0  0.55456  0.76406  0.00010  1.0000
  C   C18       1.0  0.44544  0.76406  0.00010  1.0000
  O   O13       1.0  0.29268  0.78404  0.00010  1.0000
  O   O14       1.0  0.39634  0.82199  0.00010  1.0000
  O   O15       1.0  0.60367  0.82199  0.00010  1.0000
  O   O16       1.0  0.70733  0.78404  0.00010  1.0000
  O   O17       1.0  0.60366  0.74609  0.00010  1.0000
  O   O18       1.0  0.39634  0.74609  0.00010  1.0000
  C   C19       1.0  0.39088  0.22302  0.00010  1.0000
  C   C20       1.0  0.44544  0.20305  0.00010  1.0000
  C   C21       1.0  0.55456  0.20305  0.00010  1.0000
  C   C22       1.0  0.60912  0.22302  0.00010  1.0000
  C   C23       1.0  0.55456  0.24300  0.00010  1.0000
  C   C24       1.0  0.44544  0.24300  0.00010  1.0000
  O   O19       1.0  0.29268  0.22302  0.00010  1.0000
  O   O20       1.0  0.39634  0.18507  0.00010  1.0000
  O   O21       1.0  0.60367  0.18507  0.00010  1.0000
  O   O22       1.0  0.70733  0.22302  0.00010  1.0000
  O   O23       1.0  0.60366  0.26097  0.00010  1.0000
  O   O24       1.0  0.39634  0.26097  0.00010  1.0000
  C   C25       1.0  0.99990  0.47783  0.29983  1.0000
  C   C26       1.0  0.99990  0.49070  0.36929  1.0000
  C   C27       1.0  0.99990  0.51634  0.36931  1.0000
  C   C28       1.0  0.99990  0.52922  0.29986  1.0000
  C   C29       1.0  0.99990  0.51578  0.23249  1.0000
  C   C30       1.0  0.99990  0.49127  0.23247  1.0000
  C   C31       1.0  0.99990  0.48361  0.15676  1.0000
  N   N1        1.0  0.99990  0.50353  0.10780  1.0000
  C   C32       1.0  0.99990  0.52345  0.15678  1.0000
  N   N2        1.0  0.00010  0.54694  0.13766  1.0000
  C   C33       1.0  0.00010  0.55301  0.06354  1.0000
  N   N3        1.0  0.99990  0.53748  0.00010  1.0000
  C   C34       1.0  0.99990  0.55300  0.93784  1.0000
  C   C35       1.0  0.00010  0.57700  0.96201  1.0000
  C   C36       1.0  0.00010  0.57701  0.03936  1.0000
  N   N4        1.0  0.99990  0.50353  0.89355  1.0000
  C   C37       1.0  0.99990  0.52345  0.84458  1.0000
  N   N5        1.0  0.99990  0.54694  0.86371  1.0000
  C   C38       1.0  0.99990  0.51578  0.76886  1.0000
  C   C39       1.0  0.00010  0.49127  0.76886  1.0000
  C   C40       1.0  0.00010  0.48361  0.84457  1.0000
  C   C41       1.0  0.00010  0.59837  0.08173  1.0000
  C   C42       1.0  0.00010  0.62037  0.04107  1.0000
  C   C43       1.0  0.00010  0.62036  0.96020  1.0000
  C   C44       1.0  0.00010  0.59834  0.91959  1.0000
  C   C45       1.0  0.00010  0.47783  0.70150  1.0000
  C   C46       1.0  0.99990  0.49070  0.63205  1.0000
  C   C47       1.0  0.99990  0.51634  0.63206  1.0000
  C   C48       1.0  0.99990  0.52922  0.70150  1.0000
  N   N6        1.0  0.99990  0.46958  0.00010  1.0000
  C   C49       1.0  0.00010  0.45406  0.93780  1.0000
  N   N7        1.0  0.00010  0.46012  0.86369  1.0000
  C   C50       1.0  0.00010  0.43006  0.96195  1.0000
  C   C51       1.0  0.99990  0.43006  0.03930  1.0000
  C   C52       1.0  0.99990  0.45405  0.06349  1.0000
  C   C53       1.0  0.99990  0.40870  0.08166  1.0000
  C   C54       1.0  0.00010  0.38669  0.04099  1.0000
  C   C55       1.0  0.00010  0.38670  0.96012  1.0000
  C   C56       1.0  0.00010  0.40872  0.91952  1.0000
  N   N8        1.0  0.99886  0.46012  0.13762  1.0000
  H   H1        1.0  0.99888  0.46053  0.29892  1.0000
  O   O25       1.0  0.99990  0.48005  0.42790  1.0000
  O   O26       1.0  0.99990  0.52699  0.42794  1.0000
  H   H2        1.0  0.00010  0.54652  0.29898  1.0000
  H   H3        1.0  0.00010  0.59809  0.13630  1.0000
  O   O27       1.0  0.00010  0.63896  0.07466  1.0000
  O   O28       1.0  0.00010  0.63893  0.92656  1.0000
  H   H4        1.0  0.00010  0.59805  0.86503  1.0000
  H   H5        1.0  0.00010  0.46053  0.70238  1.0000
  O   O29       1.0  0.99990  0.48005  0.57344  1.0000
  O   O30       1.0  0.99990  0.52699  0.57345  1.0000
  H   H6        1.0  0.99990  0.54651  0.70238  1.0000
  H   H7        1.0  0.99990  0.40898  0.13623  1.0000
  O   O31       1.0  0.00010  0.36811  0.07458  1.0000
  O   O32       1.0  0.00010  0.36812  0.92648  1.0000
  H   H8        1.0  0.00010  0.40901  0.86495  1.0000
  Ni  Ni1       1.0  0.99990  0.50353  0.00010  1.0000
  C   C57       1.0  0.49903  0.97783  0.29991  1.0000
  C   C58       1.0  0.49928  0.99070  0.36938  1.0000
  C   C59       1.0  0.49965  0.01634  0.36939  1.0000
  C   C60       1.0  0.49984  0.02922  0.29995  1.0000
  C   C61       1.0  0.49961  0.01578  0.23257  1.0000
  C   C62       1.0  0.49915  0.99127  0.23256  1.0000
  C   C63       1.0  0.49902  0.98361  0.15685  1.0000
  N   N9        1.0  0.49938  0.00353  0.10789  1.0000
  C   C64       1.0  0.49975  0.02345  0.15687  1.0000
  N   N10       1.0  0.50024  0.04694  0.13775  1.0000
  C   C65       1.0  0.50017  0.05301  0.06362  1.0000
  N   N11       1.0  0.49982  0.03748  0.00010  1.0000
  C   C66       1.0  0.49965  0.05300  0.93793  1.0000
  C   C67       1.0  0.50000  0.07700  0.96210  1.0000
  C   C68       1.0  0.50028  0.07701  0.03944  1.0000
  N   N12       1.0  0.49959  0.00353  0.89364  1.0000
  C   C69       1.0  0.49928  0.02345  0.84466  1.0000
  N   N13       1.0  0.49913  0.04694  0.86380  1.0000
  C   C70       1.0  0.49949  0.01578  0.76895  1.0000
  C   C71       1.0  0.49994  0.99127  0.76895  1.0000
  C   C72       1.0  0.50006  0.98361  0.84466  1.0000
  C   C73       1.0  0.50045  0.09837  0.08181  1.0000
  C   C74       1.0  0.50044  0.12037  0.04115  1.0000
  C   C75       1.0  0.50035  0.12036  0.96029  1.0000
  C   C76       1.0  0.50005  0.09834  0.91968  1.0000
  C   C77       1.0  0.50012  0.97783  0.70158  1.0000
  C   C78       1.0  0.49980  0.99070  0.63214  1.0000
  C   C79       1.0  0.49944  0.01633  0.63214  1.0000
  C   C80       1.0  0.49930  0.02922  0.70158  1.0000
  N   N14       1.0  0.49970  0.96958  0.00010  1.0000
  C   C81       1.0  0.50019  0.95406  0.93789  1.0000
  N   N15       1.0  0.50056  0.96012  0.86377  1.0000
  C   C82       1.0  0.50016  0.93006  0.96204  1.0000
  C   C83       1.0  0.49964  0.93005  0.03938  1.0000
  C   C84       1.0  0.49931  0.95405  0.06358  1.0000
  C   C85       1.0  0.49965  0.90870  0.08175  1.0000
  C   C86       1.0  0.50013  0.88669  0.04108  1.0000
  C   C87       1.0  0.50046  0.88670  0.96020  1.0000
  C   C88       1.0  0.50049  0.90871  0.91960  1.0000
  N   N16       1.0  0.49876  0.96012  0.13770  1.0000
  H   H9        1.0  0.49878  0.96053  0.29901  1.0000
  O   O33       1.0  0.49919  0.98005  0.42798  1.0000
  O   O34       1.0  0.49980  0.02699  0.42802  1.0000
  H   H10       1.0  0.50011  0.04652  0.29906  1.0000
  H   H11       1.0  0.50055  0.09809  0.13638  1.0000
  O   O35       1.0  0.50047  0.13896  0.07475  1.0000
  O   O36       1.0  0.50053  0.13893  0.92665  1.0000
  H   H12       1.0  0.49994  0.09805  0.86511  1.0000
  H   H13       1.0  0.50040  0.96053  0.70247  1.0000
  O   O37       1.0  0.49977  0.98005  0.57353  1.0000
  O   O38       1.0  0.49922  0.02699  0.57353  1.0000
  H   H14       1.0  0.49908  0.04651  0.70247  1.0000
  H   H15       1.0  0.49938  0.90898  0.13632  1.0000
  O   O39       1.0  0.50030  0.86811  0.07467  1.0000
  O   O40       1.0  0.50070  0.86812  0.92656  1.0000
  H   H16       1.0  0.50076  0.90900  0.86504  1.0000
  Ni  Ni2       1.0  0.49944  0.00353  0.00010  1.0000
  Zn  Zn1       1.0  0.00010  0.34505  0.00010  1.0000
  Zn  Zn2       1.0  0.00010  0.66201  0.00010  1.0000
  Zn  Zn3       1.0  0.50025  0.84505  0.00010  1.0000
  Zn  Zn4       1.0  0.50025  0.16201  0.00010  1.0000
  Cu  Cu1       1.0  0.25000  0.25353  0.00010  1.0000
  Cu  Cu2       1.0  0.75010  0.75353  0.00010  1.0000
  Cu  Cu3       1.0  0.25000  0.75353  0.00010  1.0000
  Cu  Cu4       1.0  0.75010  0.25353  0.00010  1.0000
  Cu  Cu5       1.0  0.99990  0.50352  0.50068  1.0000
  Cu  Cu6       1.0  0.49950  0.00352  0.50077  1.0000
