data_image0
_chemical_formula_structural       C6O6C6O6C6O6C6O6C6O6C6O6C6O6C6O6C6O6C6O6C6O6C6O6C6O6C6O6C6O6C6O6C6O6C6O6C6O6C6O6C7NCNCNC3NCNC11NCNC7NHO2H2O2H2O2H2O2HNiC7NCNCNC3NCNC11NCNC7NHO2H2O2H2O2H2O2HNiC7NCNCNC3NCNC11NCNC7NHO2H2O2H2O2H2O2HNiZn36
_chemical_formula_sum              "C216 O144 N24 H24 Ni3 Zn36"
_cell_length_a       36.931
_cell_length_b       36.9297
_cell_length_c       36.9328
_cell_angle_alpha    89.9997
_cell_angle_beta     90.0006
_cell_angle_gamma    90.0041

_space_group_name_H-M_alt    "P 1"
_space_group_IT_number       1

loop_
  _space_group_symop_operation_xyz
  'x, y, z'

loop_
  _atom_site_type_symbol
  _atom_site_label
  _atom_site_symmetry_multiplicity
  _atom_site_fract_x
  _atom_site_fract_y
  _atom_site_fract_z
  _atom_site_occupancy
  C   C1        1.0  0.35700  0.33128  0.30008  1.0000
  C   C2        1.0  0.33020  0.35809  0.30008  1.0000
  C   C3        1.0  0.30340  0.35810  0.32688  1.0000
  C   C4        1.0  0.30339  0.33129  0.35369  1.0000
  C   C5        1.0  0.33019  0.30449  0.35369  1.0000
  C   C6        1.0  0.35700  0.30448  0.32689  1.0000
  O   O1        1.0  0.38113  0.33128  0.27596  1.0000
  O   O2        1.0  0.33021  0.38221  0.27595  1.0000
  O   O3        1.0  0.27927  0.38222  0.32687  1.0000
  O   O4        1.0  0.27926  0.33130  0.37781  1.0000
  O   O5        1.0  0.33019  0.28036  0.37782  1.0000
  O   O6        1.0  0.38112  0.28035  0.32690  1.0000
  C   C7        1.0  0.65106  0.30447  0.32691  1.0000
  C   C8        1.0  0.67787  0.30448  0.35371  1.0000
  C   C9        1.0  0.70467  0.33129  0.35370  1.0000
  C   C10       1.0  0.70467  0.35809  0.32690  1.0000
  C   C11       1.0  0.67786  0.35808  0.30010  1.0000
  C   C12       1.0  0.65105  0.33128  0.30010  1.0000
  O   O7        1.0  0.62693  0.28034  0.32691  1.0000
  O   O8        1.0  0.67787  0.28035  0.37783  1.0000
  O   O9        1.0  0.72880  0.33129  0.37782  1.0000
  O   O10       1.0  0.72879  0.38222  0.32689  1.0000
  O   O11       1.0  0.67785  0.38221  0.27597  1.0000
  O   O12       1.0  0.62692  0.33127  0.27598  1.0000
  C   C13       1.0  0.67785  0.70575  0.35368  1.0000
  C   C14       1.0  0.65105  0.70575  0.32687  1.0000
  C   C15       1.0  0.65105  0.67895  0.30007  1.0000
  C   C16       1.0  0.67785  0.65214  0.30007  1.0000
  C   C17       1.0  0.70466  0.65214  0.32688  1.0000
  C   C18       1.0  0.70465  0.67894  0.35368  1.0000
  O   O13       1.0  0.67785  0.72987  0.37780  1.0000
  O   O14       1.0  0.62692  0.72987  0.32687  1.0000
  O   O15       1.0  0.62693  0.67895  0.27594  1.0000
  O   O16       1.0  0.67786  0.62802  0.27594  1.0000
  O   O17       1.0  0.72878  0.62801  0.32688  1.0000
  O   O18       1.0  0.72878  0.67894  0.37781  1.0000
  C   C19       1.0  0.35701  0.70577  0.32688  1.0000
  C   C20       1.0  0.33021  0.70577  0.35369  1.0000
  C   C21       1.0  0.30340  0.67896  0.35369  1.0000
  C   C22       1.0  0.30340  0.65216  0.32689  1.0000
  C   C23       1.0  0.33020  0.65215  0.30008  1.0000
  C   C24       1.0  0.35701  0.67896  0.30008  1.0000
  O   O19       1.0  0.38114  0.72989  0.32688  1.0000
  O   O20       1.0  0.33021  0.72989  0.37781  1.0000
  O   O21       1.0  0.27927  0.67896  0.37781  1.0000
  O   O22       1.0  0.27927  0.62803  0.32689  1.0000
  O   O23       1.0  0.33020  0.62803  0.27596  1.0000
  O   O24       1.0  0.38113  0.67896  0.27595  1.0000
  C   C25       1.0  0.35700  0.70577  0.67457  1.0000
  C   C26       1.0  0.33020  0.70577  0.64776  1.0000
  C   C27       1.0  0.30339  0.67896  0.64776  1.0000
  C   C28       1.0  0.30338  0.65216  0.67456  1.0000
  C   C29       1.0  0.33018  0.65216  0.70137  1.0000
  C   C30       1.0  0.35699  0.67896  0.70137  1.0000
  O   O25       1.0  0.38113  0.72989  0.67457  1.0000
  O   O26       1.0  0.33020  0.72989  0.62364  1.0000
  O   O27       1.0  0.27927  0.67897  0.62363  1.0000
  O   O28       1.0  0.27925  0.62804  0.67456  1.0000
  O   O29       1.0  0.33018  0.62803  0.72549  1.0000
  O   O30       1.0  0.38112  0.67896  0.72550  1.0000
  C   C31       1.0  0.35699  0.33128  0.70137  1.0000
  C   C32       1.0  0.33019  0.35808  0.70137  1.0000
  C   C33       1.0  0.30338  0.35809  0.67457  1.0000
  C   C34       1.0  0.30338  0.33129  0.64776  1.0000
  C   C35       1.0  0.33018  0.30448  0.64776  1.0000
  C   C36       1.0  0.35699  0.30448  0.67456  1.0000
  O   O31       1.0  0.38112  0.33128  0.72549  1.0000
  O   O32       1.0  0.33019  0.38221  0.72550  1.0000
  O   O33       1.0  0.27926  0.38221  0.67457  1.0000
  O   O34       1.0  0.27925  0.33129  0.62364  1.0000
  O   O35       1.0  0.33018  0.28036  0.62363  1.0000
  O   O36       1.0  0.38111  0.28035  0.67455  1.0000
  C   C37       1.0  0.67788  0.35808  0.70135  1.0000
  C   C38       1.0  0.65107  0.33127  0.70135  1.0000
  C   C39       1.0  0.65107  0.30447  0.67455  1.0000
  C   C40       1.0  0.67788  0.30447  0.64774  1.0000
  C   C41       1.0  0.70468  0.33128  0.64775  1.0000
  C   C42       1.0  0.70468  0.35808  0.67455  1.0000
  O   O37       1.0  0.67788  0.38220  0.72548  1.0000
  O   O38       1.0  0.62694  0.33127  0.72547  1.0000
  O   O39       1.0  0.62695  0.28034  0.67454  1.0000
  O   O40       1.0  0.67788  0.28034  0.62362  1.0000
  O   O41       1.0  0.72881  0.33128  0.62363  1.0000
  O   O42       1.0  0.72881  0.38221  0.67456  1.0000
  C   C43       1.0  0.65107  0.67895  0.70138  1.0000
  C   C44       1.0  0.67788  0.65214  0.70138  1.0000
  C   C45       1.0  0.70468  0.65215  0.67457  1.0000
  C   C46       1.0  0.70467  0.67895  0.64776  1.0000
  C   C47       1.0  0.67786  0.70575  0.64777  1.0000
  C   C48       1.0  0.65106  0.70575  0.67457  1.0000
  O   O43       1.0  0.62695  0.67895  0.72551  1.0000
  O   O44       1.0  0.67788  0.62802  0.72550  1.0000
  O   O45       1.0  0.72880  0.62802  0.67456  1.0000
  O   O46       1.0  0.72879  0.67895  0.62363  1.0000
  O   O47       1.0  0.67786  0.72988  0.62364  1.0000
  O   O48       1.0  0.62694  0.72988  0.67458  1.0000
  C   C49       1.0  0.28232  0.28345  0.48177  1.0000
  C   C50       1.0  0.28232  0.28345  0.51967  1.0000
  C   C51       1.0  0.25911  0.26023  0.53863  1.0000
  C   C52       1.0  0.23589  0.23702  0.51967  1.0000
  C   C53       1.0  0.23589  0.23702  0.48177  1.0000
  C   C54       1.0  0.25911  0.26023  0.46281  1.0000
  O   O49       1.0  0.30322  0.30434  0.46471  1.0000
  O   O50       1.0  0.30322  0.30434  0.53673  1.0000
  O   O51       1.0  0.25910  0.26023  0.57274  1.0000
  O   O52       1.0  0.21500  0.21612  0.53673  1.0000
  O   O53       1.0  0.21500  0.21612  0.46471  1.0000
  O   O54       1.0  0.25911  0.26023  0.42870  1.0000
  C   C55       1.0  0.72575  0.28343  0.51967  1.0000
  C   C56       1.0  0.72575  0.28343  0.48177  1.0000
  C   C57       1.0  0.74896  0.26022  0.46281  1.0000
  C   C58       1.0  0.77218  0.23701  0.48176  1.0000
  C   C59       1.0  0.77218  0.23701  0.51967  1.0000
  C   C60       1.0  0.74897  0.26022  0.53863  1.0000
  O   O55       1.0  0.70486  0.30433  0.53673  1.0000
  O   O56       1.0  0.70486  0.30433  0.46471  1.0000
  O   O57       1.0  0.74896  0.26022  0.42870  1.0000
  O   O58       1.0  0.79307  0.21612  0.46471  1.0000
  O   O59       1.0  0.79307  0.21612  0.53673  1.0000
  O   O60       1.0  0.74897  0.26022  0.57274  1.0000
  C   C61       1.0  0.72569  0.72680  0.48177  1.0000
  C   C62       1.0  0.72569  0.72680  0.51967  1.0000
  C   C63       1.0  0.74891  0.75001  0.53863  1.0000
  C   C64       1.0  0.77212  0.77323  0.51967  1.0000
  C   C65       1.0  0.77212  0.77323  0.48176  1.0000
  C   C66       1.0  0.74890  0.75001  0.46281  1.0000
  O   O61       1.0  0.70479  0.70590  0.46471  1.0000
  O   O62       1.0  0.70480  0.70590  0.53673  1.0000
  O   O63       1.0  0.74891  0.75001  0.57274  1.0000
  O   O64       1.0  0.79301  0.79412  0.53673  1.0000
  O   O65       1.0  0.79301  0.79412  0.46471  1.0000
  O   O66       1.0  0.74890  0.75001  0.42870  1.0000
  C   C67       1.0  0.28237  0.72685  0.48177  1.0000
  C   C68       1.0  0.28237  0.72685  0.51967  1.0000
  C   C69       1.0  0.25916  0.75006  0.53863  1.0000
  C   C70       1.0  0.23594  0.77327  0.51967  1.0000
  C   C71       1.0  0.23595  0.77327  0.48176  1.0000
  C   C72       1.0  0.25916  0.75006  0.46281  1.0000
  O   O67       1.0  0.30326  0.70596  0.46471  1.0000
  O   O68       1.0  0.30326  0.70596  0.53673  1.0000
  O   O69       1.0  0.25916  0.75006  0.57274  1.0000
  O   O70       1.0  0.21505  0.79417  0.53673  1.0000
  O   O71       1.0  0.21505  0.79417  0.46470  1.0000
  O   O72       1.0  0.25916  0.75006  0.42870  1.0000
  C   C73       1.0  0.48507  0.28341  0.27905  1.0000
  C   C74       1.0  0.52298  0.28341  0.27905  1.0000
  C   C75       1.0  0.54194  0.26020  0.25584  1.0000
  C   C76       1.0  0.52298  0.23699  0.23263  1.0000
  C   C77       1.0  0.48507  0.23699  0.23263  1.0000
  C   C78       1.0  0.46612  0.26020  0.25584  1.0000
  O   O73       1.0  0.46802  0.30431  0.29994  1.0000
  O   O74       1.0  0.54004  0.30431  0.29995  1.0000
  O   O75       1.0  0.57605  0.26020  0.25584  1.0000
  O   O76       1.0  0.54004  0.21609  0.21174  1.0000
  O   O77       1.0  0.46802  0.21609  0.21173  1.0000
  O   O78       1.0  0.43200  0.26020  0.25583  1.0000
  C   C79       1.0  0.74891  0.54302  0.25579  1.0000
  C   C80       1.0  0.77212  0.52407  0.23258  1.0000
  C   C81       1.0  0.77212  0.48616  0.23258  1.0000
  C   C82       1.0  0.74891  0.46721  0.25580  1.0000
  C   C83       1.0  0.72570  0.48616  0.27901  1.0000
  C   C84       1.0  0.72569  0.52407  0.27901  1.0000
  O   O79       1.0  0.74891  0.57714  0.25579  1.0000
  O   O80       1.0  0.79301  0.54113  0.21169  1.0000
  O   O81       1.0  0.79301  0.46910  0.21169  1.0000
  O   O82       1.0  0.74891  0.43309  0.25580  1.0000
  O   O83       1.0  0.70480  0.46910  0.29990  1.0000
  O   O84       1.0  0.70480  0.54113  0.29990  1.0000
  C   C85       1.0  0.48508  0.72679  0.27899  1.0000
  C   C86       1.0  0.52299  0.72679  0.27899  1.0000
  C   C87       1.0  0.54194  0.75000  0.25578  1.0000
  C   C88       1.0  0.52299  0.77322  0.23256  1.0000
  C   C89       1.0  0.48508  0.77322  0.23257  1.0000
  C   C90       1.0  0.46613  0.75000  0.25578  1.0000
  O   O85       1.0  0.46802  0.70590  0.29989  1.0000
  O   O86       1.0  0.54005  0.70590  0.29988  1.0000
  O   O87       1.0  0.57606  0.75000  0.25578  1.0000
  O   O88       1.0  0.54005  0.79411  0.21167  1.0000
  O   O89       1.0  0.46802  0.79411  0.21167  1.0000
  O   O90       1.0  0.43201  0.75000  0.25578  1.0000
  C   C91       1.0  0.23595  0.52407  0.23257  1.0000
  C   C92       1.0  0.25916  0.54303  0.25578  1.0000
  C   C93       1.0  0.28237  0.52408  0.27899  1.0000
  C   C94       1.0  0.28237  0.48617  0.27899  1.0000
  C   C95       1.0  0.25916  0.46721  0.25578  1.0000
  C   C96       1.0  0.23594  0.48617  0.23256  1.0000
  O   O91       1.0  0.21505  0.54113  0.21167  1.0000
  O   O92       1.0  0.25916  0.57715  0.25578  1.0000
  O   O93       1.0  0.30327  0.54114  0.29989  1.0000
  O   O94       1.0  0.30326  0.46911  0.29988  1.0000
  O   O95       1.0  0.25916  0.43309  0.25578  1.0000
  O   O96       1.0  0.21505  0.46910  0.21167  1.0000
  C   C97       1.0  0.48508  0.72680  0.72245  1.0000
  C   C98       1.0  0.52299  0.72680  0.72245  1.0000
  C   C99       1.0  0.54195  0.75001  0.74566  1.0000
  C   C100      1.0  0.52299  0.77323  0.76887  1.0000
  C   C101      1.0  0.48509  0.77323  0.76887  1.0000
  C   C102      1.0  0.46613  0.75002  0.74566  1.0000
  O   O97       1.0  0.46802  0.70591  0.70155  1.0000
  O   O98       1.0  0.54005  0.70591  0.70156  1.0000
  O   O99       1.0  0.57606  0.75001  0.74566  1.0000
  O   O100      1.0  0.54005  0.79412  0.78977  1.0000
  O   O101      1.0  0.46803  0.79412  0.78976  1.0000
  O   O102      1.0  0.43201  0.75002  0.74566  1.0000
  C   C103      1.0  0.23589  0.48616  0.76886  1.0000
  C   C104      1.0  0.25911  0.46721  0.74564  1.0000
  C   C105      1.0  0.28232  0.48617  0.72243  1.0000
  C   C106      1.0  0.28232  0.52407  0.72243  1.0000
  C   C107      1.0  0.25911  0.54303  0.74564  1.0000
  C   C108      1.0  0.23589  0.52407  0.76886  1.0000
  O   O103      1.0  0.21500  0.46910  0.78975  1.0000
  O   O104      1.0  0.25910  0.43309  0.74564  1.0000
  O   O105      1.0  0.30321  0.46911  0.70154  1.0000
  O   O106      1.0  0.30321  0.54114  0.70154  1.0000
  O   O107      1.0  0.25911  0.57715  0.74564  1.0000
  O   O108      1.0  0.21500  0.54113  0.78975  1.0000
  C   C109      1.0  0.48508  0.28340  0.72239  1.0000
  C   C110      1.0  0.52299  0.28340  0.72239  1.0000
  C   C111      1.0  0.54194  0.26018  0.74560  1.0000
  C   C112      1.0  0.52299  0.23697  0.76881  1.0000
  C   C113      1.0  0.48508  0.23697  0.76882  1.0000
  C   C114      1.0  0.46612  0.26018  0.74560  1.0000
  O   O109      1.0  0.46802  0.30429  0.70150  1.0000
  O   O110      1.0  0.54004  0.30429  0.70149  1.0000
  O   O111      1.0  0.57606  0.26018  0.74560  1.0000
  O   O112      1.0  0.54004  0.21608  0.78970  1.0000
  O   O113      1.0  0.46802  0.21608  0.78971  1.0000
  O   O114      1.0  0.43200  0.26019  0.74561  1.0000
  C   C115      1.0  0.74896  0.46721  0.74562  1.0000
  C   C116      1.0  0.77218  0.48616  0.76884  1.0000
  C   C117      1.0  0.77218  0.52407  0.76884  1.0000
  C   C118      1.0  0.74896  0.54302  0.74563  1.0000
  C   C119      1.0  0.72575  0.52407  0.72241  1.0000
  C   C120      1.0  0.72575  0.48616  0.72241  1.0000
  O   O115      1.0  0.74897  0.43309  0.74562  1.0000
  O   O116      1.0  0.79307  0.46910  0.78973  1.0000
  O   O117      1.0  0.79307  0.54113  0.78973  1.0000
  O   O118      1.0  0.74896  0.57714  0.74563  1.0000
  O   O119      1.0  0.70486  0.54113  0.70152  1.0000
  O   O120      1.0  0.70486  0.46910  0.70152  1.0000
  C   C121      1.0  0.86394  0.92476  0.50104  1.0000
  C   C122      1.0  0.85332  0.88421  0.50095  1.0000
  C   C123      1.0  0.88311  0.85441  0.50083  1.0000
  C   C124      1.0  0.92366  0.86503  0.50076  1.0000
  C   C125      1.0  0.93287  0.90546  0.50084  1.0000
  C   C126      1.0  0.90438  0.93396  0.50100  1.0000
  C   C127      1.0  0.92337  0.97075  0.50104  1.0000
  N   N1        1.0  0.96455  0.96564  0.50092  1.0000
  C   C128      1.0  0.96967  0.92445  0.50079  1.0000
  N   N2        1.0  0.00402  0.90419  0.50062  1.0000
  C   C129      1.0  0.03838  0.92445  0.50064  1.0000
  N   N3        1.0  0.04348  0.96564  0.50077  1.0000
  C   C130      1.0  0.08468  0.97076  0.50083  1.0000
  C   C131      1.0  0.10366  0.93397  0.50070  1.0000
  C   C132      1.0  0.07518  0.90547  0.50061  1.0000
  N   N4        1.0  0.04349  0.04457  0.50085  1.0000
  C   C133      1.0  0.08468  0.03947  0.50095  1.0000
  N   N5        1.0  0.10494  0.00512  0.50101  1.0000
  C   C134      1.0  0.10366  0.07626  0.50088  1.0000
  C   C135      1.0  0.07517  0.10475  0.50073  1.0000
  C   C136      1.0  0.03838  0.08576  0.50068  1.0000
  C   C137      1.0  0.08440  0.86504  0.50055  1.0000
  C   C138      1.0  0.12495  0.85444  0.50055  1.0000
  C   C139      1.0  0.15473  0.88425  0.50058  1.0000
  C   C140      1.0  0.14410  0.92480  0.50069  1.0000
  C   C141      1.0  0.08436  0.14519  0.50066  1.0000
  C   C142      1.0  0.12491  0.15581  0.50077  1.0000
  C   C143      1.0  0.15470  0.12602  0.50090  1.0000
  C   C144      1.0  0.14410  0.08547  0.50095  1.0000
  N   N6        1.0  0.96456  0.04457  0.50081  1.0000
  C   C145      1.0  0.96968  0.08576  0.50064  1.0000
  N   N7        1.0  0.00403  0.10602  0.50051  1.0000
  C   C146      1.0  0.93289  0.10475  0.50065  1.0000
  C   C147      1.0  0.90439  0.07626  0.50083  1.0000
  C   C148      1.0  0.92337  0.03946  0.50095  1.0000
  C   C149      1.0  0.86396  0.08547  0.50083  1.0000
  C   C150      1.0  0.85336  0.12602  0.50066  1.0000
  C   C151      1.0  0.88316  0.15581  0.50055  1.0000
  C   C152      1.0  0.92371  0.14518  0.50054  1.0000
  N   N8        1.0  0.90311  0.00510  0.50113  1.0000
  H   H1        1.0  0.84417  0.94520  0.50113  1.0000
  O   O121      1.0  0.81934  0.87500  0.50098  1.0000
  O   O122      1.0  0.87389  0.82044  0.50077  1.0000
  H   H2        1.0  0.94409  0.84526  0.50066  1.0000
  H   H3        1.0  0.06398  0.84525  0.50051  1.0000
  O   O123      1.0  0.13418  0.82047  0.50054  1.0000
  O   O124      1.0  0.18871  0.87506  0.50052  1.0000
  H   H4        1.0  0.16386  0.94524  0.50072  1.0000
  H   H5        1.0  0.06393  0.16496  0.50057  1.0000
  O   O125      1.0  0.13412  0.18979  0.50078  1.0000
  O   O126      1.0  0.18868  0.13524  0.50097  1.0000
  H   H6        1.0  0.16387  0.06505  0.50103  1.0000
  H   H7        1.0  0.84418  0.06504  0.50092  1.0000
  O   O127      1.0  0.81939  0.13524  0.50060  1.0000
  O   O128      1.0  0.87396  0.18979  0.50046  1.0000
  H   H8        1.0  0.94415  0.16495  0.50044  1.0000
  Ni  Ni1       1.0  0.00402  0.00510  0.50090  1.0000
  C   C153      1.0  0.50370  0.08546  0.14081  1.0000
  C   C154      1.0  0.50379  0.12601  0.15143  1.0000
  C   C155      1.0  0.50391  0.15581  0.12164  1.0000
  C   C156      1.0  0.50398  0.14520  0.08108  1.0000
  C   C157      1.0  0.50390  0.10477  0.07188  1.0000
  C   C158      1.0  0.50374  0.07627  0.10037  1.0000
  C   C159      1.0  0.50370  0.03948  0.08138  1.0000
  N   N9        1.0  0.50382  0.04459  0.04019  1.0000
  C   C160      1.0  0.50395  0.08578  0.03508  1.0000
  N   N10       1.0  0.50412  0.10605  0.00010  1.0000
  C   C161      1.0  0.50410  0.08579  0.96638  1.0000
  N   N11       1.0  0.50397  0.04459  0.96127  1.0000
  C   C162      1.0  0.50392  0.03948  0.92008  1.0000
  C   C163      1.0  0.50404  0.07627  0.90109  1.0000
  C   C164      1.0  0.50413  0.10477  0.92958  1.0000
  N   N12       1.0  0.50390  0.96567  0.96127  1.0000
  C   C165      1.0  0.50379  0.97077  0.92008  1.0000
  N   N13       1.0  0.50374  0.00512  0.89982  1.0000
  C   C166      1.0  0.50386  0.93397  0.90109  1.0000
  C   C167      1.0  0.50402  0.90548  0.92959  1.0000
  C   C168      1.0  0.50406  0.92447  0.96638  1.0000
  C   C169      1.0  0.50419  0.14520  0.92036  1.0000
  C   C170      1.0  0.50419  0.15580  0.87980  1.0000
  C   C171      1.0  0.50416  0.12599  0.85002  1.0000
  C   C172      1.0  0.50406  0.08545  0.86066  1.0000
  C   C173      1.0  0.50408  0.86505  0.92039  1.0000
  C   C174      1.0  0.50397  0.85443  0.87985  1.0000
  C   C175      1.0  0.50385  0.88422  0.85006  1.0000
  C   C176      1.0  0.50380  0.92477  0.86066  1.0000
  N   N14       1.0  0.50393  0.96567  0.04019  1.0000
  C   C177      1.0  0.50410  0.92447  0.03507  1.0000
  N   N15       1.0  0.50423  0.90421  0.00010  1.0000
  C   C178      1.0  0.50409  0.90548  0.07186  1.0000
  C   C179      1.0  0.50391  0.93397  0.10036  1.0000
  C   C180      1.0  0.50380  0.97077  0.08138  1.0000
  C   C181      1.0  0.50392  0.92476  0.14079  1.0000
  C   C182      1.0  0.50409  0.88420  0.15139  1.0000
  C   C183      1.0  0.50420  0.85442  0.12158  1.0000
  C   C184      1.0  0.50421  0.86504  0.08104  1.0000
  N   N16       1.0  0.50361  0.00512  0.10163  1.0000
  H   H9        1.0  0.50361  0.06503  0.16057  1.0000
  O   O129      1.0  0.50376  0.13522  0.18540  1.0000
  O   O130      1.0  0.50397  0.18978  0.13086  1.0000
  H   H10       1.0  0.50407  0.16497  0.06065  1.0000
  H   H11       1.0  0.50423  0.16499  0.94077  1.0000
  O   O131      1.0  0.50420  0.18977  0.87057  1.0000
  O   O132      1.0  0.50422  0.13518  0.81605  1.0000
  H   H12       1.0  0.50402  0.06501  0.84089  1.0000
  H   H13       1.0  0.50418  0.84528  0.94082  1.0000
  O   O133      1.0  0.50396  0.82045  0.87064  1.0000
  O   O134      1.0  0.50377  0.87501  0.81608  1.0000
  H   H14       1.0  0.50372  0.94520  0.84089  1.0000
  H   H15       1.0  0.50382  0.94518  0.16057  1.0000
  O   O135      1.0  0.50414  0.87498  0.18536  1.0000
  O   O136      1.0  0.50428  0.82044  0.13078  1.0000
  H   H16       1.0  0.50431  0.84528  0.06060  1.0000
  Ni  Ni2       1.0  0.50385  0.00513  0.00010  1.0000
  C   C185      1.0  0.86394  0.50545  0.08106  1.0000
  C   C186      1.0  0.85332  0.50536  0.12161  1.0000
  C   C187      1.0  0.88311  0.50523  0.15141  1.0000
  C   C188      1.0  0.92367  0.50517  0.14080  1.0000
  C   C189      1.0  0.93287  0.50525  0.10037  1.0000
  C   C190      1.0  0.90438  0.50541  0.07187  1.0000
  C   C191      1.0  0.92337  0.50545  0.03508  1.0000
  N   N17       1.0  0.96456  0.50533  0.04020  1.0000
  C   C192      1.0  0.96967  0.50520  0.08139  1.0000
  N   N18       1.0  0.00402  0.50503  0.10165  1.0000
  C   C193      1.0  0.03838  0.50505  0.08139  1.0000
  N   N19       1.0  0.04348  0.50518  0.04020  1.0000
  C   C194      1.0  0.08468  0.50524  0.03508  1.0000
  C   C195      1.0  0.10366  0.50512  0.07187  1.0000
  C   C196      1.0  0.07518  0.50502  0.10037  1.0000
  N   N20       1.0  0.04349  0.50526  0.96128  1.0000
  C   C197      1.0  0.08468  0.50536  0.96638  1.0000
  N   N21       1.0  0.10494  0.50542  0.00010  1.0000
  C   C198      1.0  0.10366  0.50529  0.92959  1.0000
  C   C199      1.0  0.07517  0.50514  0.90110  1.0000
  C   C200      1.0  0.03838  0.50509  0.92009  1.0000
  C   C201      1.0  0.08440  0.50496  0.14080  1.0000
  C   C202      1.0  0.12496  0.50496  0.15139  1.0000
  C   C203      1.0  0.15474  0.50499  0.12159  1.0000
  C   C204      1.0  0.14410  0.50510  0.08105  1.0000
  C   C205      1.0  0.08436  0.50507  0.86067  1.0000
  C   C206      1.0  0.12491  0.50518  0.85005  1.0000
  C   C207      1.0  0.15470  0.50531  0.87984  1.0000
  C   C208      1.0  0.14410  0.50536  0.92039  1.0000
  N   N22       1.0  0.96456  0.50522  0.96128  1.0000
  C   C209      1.0  0.96968  0.50505  0.92009  1.0000
  N   N23       1.0  0.00402  0.50492  0.89983  1.0000
  C   C210      1.0  0.93289  0.50506  0.90110  1.0000
  C   C211      1.0  0.90439  0.50524  0.92958  1.0000
  C   C212      1.0  0.92337  0.50535  0.96638  1.0000
  C   C213      1.0  0.86396  0.50523  0.92037  1.0000
  C   C214      1.0  0.85336  0.50507  0.87982  1.0000
  C   C215      1.0  0.88316  0.50495  0.85004  1.0000
  C   C216      1.0  0.92371  0.50494  0.86066  1.0000
  N   N24       1.0  0.90311  0.50554  0.00010  1.0000
  H   H17       1.0  0.84417  0.50554  0.06063  1.0000
  O   O137      1.0  0.81934  0.50539  0.13082  1.0000
  O   O138      1.0  0.87389  0.50518  0.18538  1.0000
  H   H18       1.0  0.94410  0.50507  0.16057  1.0000
  H   H19       1.0  0.06398  0.50492  0.16058  1.0000
  O   O139      1.0  0.13418  0.50495  0.18536  1.0000
  O   O140      1.0  0.18872  0.50493  0.13078  1.0000
  H   H20       1.0  0.16387  0.50514  0.06061  1.0000
  H   H21       1.0  0.06393  0.50497  0.84090  1.0000
  O   O141      1.0  0.13411  0.50519  0.81608  1.0000
  O   O142      1.0  0.18868  0.50539  0.87063  1.0000
  H   H22       1.0  0.16387  0.50544  0.94081  1.0000
  H   H23       1.0  0.84418  0.50533  0.94079  1.0000
  O   O143      1.0  0.81939  0.50501  0.87060  1.0000
  O   O144      1.0  0.87396  0.50487  0.81606  1.0000
  H   H24       1.0  0.94415  0.50485  0.84090  1.0000
  Ni  Ni3       1.0  0.00402  0.50531  0.00010  1.0000
  Zn  Zn1       1.0  0.29295  0.29406  0.41226  1.0000
  Zn  Zn2       1.0  0.71512  0.29405  0.41227  1.0000
  Zn  Zn3       1.0  0.71508  0.71618  0.41226  1.0000
  Zn  Zn4       1.0  0.29298  0.71622  0.41226  1.0000
  Zn  Zn5       1.0  0.29297  0.71622  0.58918  1.0000
  Zn  Zn6       1.0  0.29294  0.29405  0.58919  1.0000
  Zn  Zn7       1.0  0.71513  0.29404  0.58918  1.0000
  Zn  Zn8       1.0  0.71509  0.71619  0.58919  1.0000
  Zn  Zn9       1.0  0.41557  0.29403  0.28966  1.0000
  Zn  Zn10      1.0  0.71509  0.41665  0.28964  1.0000
  Zn  Zn11      1.0  0.59249  0.71618  0.28962  1.0000
  Zn  Zn12      1.0  0.29297  0.59359  0.28963  1.0000
  Zn  Zn13      1.0  0.41557  0.71619  0.71182  1.0000
  Zn  Zn14      1.0  0.29294  0.41665  0.71181  1.0000
  Zn  Zn15      1.0  0.59250  0.29402  0.71178  1.0000
  Zn  Zn16      1.0  0.71512  0.59358  0.71180  1.0000
  Zn  Zn17      1.0  0.29298  0.41666  0.28962  1.0000
  Zn  Zn18      1.0  0.29294  0.59359  0.71181  1.0000
  Zn  Zn19      1.0  0.41556  0.29403  0.71179  1.0000
  Zn  Zn20      1.0  0.71513  0.41665  0.71179  1.0000
  Zn  Zn21      1.0  0.59250  0.71619  0.71183  1.0000
  Zn  Zn22      1.0  0.71509  0.59358  0.28963  1.0000
  Zn  Zn23      1.0  0.41557  0.71619  0.28962  1.0000
  Zn  Zn24      1.0  0.59249  0.29403  0.28967  1.0000
  Zn  Zn25      1.0  0.18820  0.18932  0.50080  1.0000
  Zn  Zn26      1.0  0.81988  0.18932  0.50062  1.0000
  Zn  Zn27      1.0  0.81981  0.82092  0.50080  1.0000
  Zn  Zn28      1.0  0.18825  0.82097  0.50062  1.0000
  Zn  Zn29      1.0  0.50394  0.18930  0.18493  1.0000
  Zn  Zn30      1.0  0.81981  0.50520  0.18489  1.0000
  Zn  Zn31      1.0  0.50413  0.82091  0.18487  1.0000
  Zn  Zn32      1.0  0.18825  0.50503  0.18487  1.0000
  Zn  Zn33      1.0  0.50395  0.82093  0.81657  1.0000
  Zn  Zn34      1.0  0.18820  0.50520  0.81655  1.0000
  Zn  Zn35      1.0  0.50412  0.18928  0.81651  1.0000
  Zn  Zn36      1.0  0.81987  0.50503  0.81653  1.0000
