data_image0
_chemical_formula_structural       C6O6C6O6C6O6C6O6C6O6C6O6C6O6C6O6C6O6C6O6C6O6C6O6C6O6C6O6C6O6C6O6C6O6C6O6C6O6C6O6C7NCNCNC3NCNC11NCNC7NH8C16HO2H2O2H2O2H2O2HNiC7NCNCNC3NCNC11NCNC7NH8C16HO2H2O2H2O2H2O2HNiC7NCNCNC3NCNC11NCNC7NH8C16HO2H2O2H2O2H2O2HNiZn36
_chemical_formula_sum              "C264 O144 N24 H48 Ni3 Zn36"
_cell_length_a       41.0065
_cell_length_b       41.1007
_cell_length_c       41.0537
_cell_angle_alpha    89.9985
_cell_angle_beta     90.0015
_cell_angle_gamma    90.0015

_space_group_name_H-M_alt    "P 1"
_space_group_IT_number       1

loop_
  _space_group_symop_operation_xyz
  'x, y, z'

loop_
  _atom_site_type_symbol
  _atom_site_label
  _atom_site_symmetry_multiplicity
  _atom_site_fract_x
  _atom_site_fract_y
  _atom_site_fract_z
  _atom_site_occupancy
  C   C1        1.0  0.36833  0.34896  0.32202  1.0000
  C   C2        1.0  0.34420  0.37306  0.32210  1.0000
  C   C3        1.0  0.32010  0.37303  0.34625  1.0000
  C   C4        1.0  0.32012  0.34890  0.37033  1.0000
  C   C5        1.0  0.34425  0.32481  0.37025  1.0000
  C   C6        1.0  0.36835  0.32484  0.34609  1.0000
  O   O1        1.0  0.39002  0.34899  0.30028  1.0000
  O   O2        1.0  0.34417  0.39478  0.30044  1.0000
  O   O3        1.0  0.29838  0.39472  0.34633  1.0000
  O   O4        1.0  0.29843  0.34888  0.39206  1.0000
  O   O5        1.0  0.34428  0.30309  0.39191  1.0000
  O   O6        1.0  0.39007  0.30315  0.34602  1.0000
  C   C7        1.0  0.63298  0.32484  0.34610  1.0000
  C   C8        1.0  0.65709  0.32481  0.37026  1.0000
  C   C9        1.0  0.68122  0.34891  0.37034  1.0000
  C   C10       1.0  0.68124  0.37304  0.34627  1.0000
  C   C11       1.0  0.65714  0.37307  0.32211  1.0000
  C   C12       1.0  0.63301  0.34897  0.32203  1.0000
  O   O7        1.0  0.61127  0.30315  0.34603  1.0000
  O   O8        1.0  0.65706  0.30310  0.39192  1.0000
  O   O9        1.0  0.70291  0.34888  0.39208  1.0000
  O   O10       1.0  0.70296  0.39472  0.34634  1.0000
  O   O11       1.0  0.65717  0.39478  0.30045  1.0000
  O   O12       1.0  0.61132  0.34900  0.30029  1.0000
  C   C13       1.0  0.65709  0.68573  0.37023  1.0000
  C   C14       1.0  0.63299  0.68570  0.34608  1.0000
  C   C15       1.0  0.63302  0.66157  0.32200  1.0000
  C   C16       1.0  0.65715  0.63748  0.32209  1.0000
  C   C17       1.0  0.68125  0.63751  0.34625  1.0000
  C   C18       1.0  0.68122  0.66164  0.37032  1.0000
  O   O13       1.0  0.65706  0.70745  0.39190  1.0000
  O   O14       1.0  0.61127  0.70739  0.34600  1.0000
  O   O15       1.0  0.61133  0.66155  0.30026  1.0000
  O   O16       1.0  0.65718  0.61576  0.30043  1.0000
  O   O17       1.0  0.70297  0.61582  0.34633  1.0000
  O   O18       1.0  0.70291  0.66166  0.39206  1.0000
  C   C19       1.0  0.36836  0.68570  0.34607  1.0000
  C   C20       1.0  0.34426  0.68573  0.37023  1.0000
  C   C21       1.0  0.32013  0.66163  0.37031  1.0000
  C   C22       1.0  0.32010  0.63751  0.34624  1.0000
  C   C23       1.0  0.34420  0.63748  0.32209  1.0000
  C   C24       1.0  0.36833  0.66157  0.32200  1.0000
  O   O19       1.0  0.39008  0.70739  0.34600  1.0000
  O   O20       1.0  0.34430  0.70744  0.39189  1.0000
  O   O21       1.0  0.29845  0.66166  0.39206  1.0000
  O   O22       1.0  0.29838  0.61582  0.34632  1.0000
  O   O23       1.0  0.34417  0.61576  0.30042  1.0000
  O   O24       1.0  0.39002  0.66155  0.30026  1.0000
  C   C25       1.0  0.36836  0.68568  0.65906  1.0000
  C   C26       1.0  0.34427  0.68572  0.63490  1.0000
  C   C27       1.0  0.32013  0.66163  0.63481  1.0000
  C   C28       1.0  0.32010  0.63750  0.65888  1.0000
  C   C29       1.0  0.34419  0.63746  0.68304  1.0000
  C   C30       1.0  0.36832  0.66155  0.68313  1.0000
  O   O25       1.0  0.39008  0.70737  0.65914  1.0000
  O   O26       1.0  0.34430  0.70744  0.61324  1.0000
  O   O27       1.0  0.29845  0.66166  0.61306  1.0000
  O   O28       1.0  0.29838  0.61581  0.65879  1.0000
  O   O29       1.0  0.34416  0.61574  0.70470  1.0000
  O   O30       1.0  0.39001  0.66152  0.70487  1.0000
  C   C31       1.0  0.36832  0.34894  0.68309  1.0000
  C   C32       1.0  0.34419  0.37304  0.68301  1.0000
  C   C33       1.0  0.32009  0.37301  0.65886  1.0000
  C   C34       1.0  0.32012  0.34889  0.63479  1.0000
  C   C35       1.0  0.34425  0.32479  0.63487  1.0000
  C   C36       1.0  0.36835  0.32482  0.65902  1.0000
  O   O31       1.0  0.39001  0.34897  0.70483  1.0000
  O   O32       1.0  0.34417  0.39475  0.70468  1.0000
  O   O33       1.0  0.29837  0.39470  0.65879  1.0000
  O   O34       1.0  0.29843  0.34886  0.61305  1.0000
  O   O35       1.0  0.34427  0.30308  0.61320  1.0000
  O   O36       1.0  0.39007  0.30313  0.65909  1.0000
  C   C37       1.0  0.65716  0.37304  0.68301  1.0000
  C   C38       1.0  0.63303  0.34894  0.68309  1.0000
  C   C39       1.0  0.63300  0.32482  0.65902  1.0000
  C   C40       1.0  0.65710  0.32479  0.63487  1.0000
  C   C41       1.0  0.68123  0.34889  0.63478  1.0000
  C   C42       1.0  0.68126  0.37301  0.65886  1.0000
  O   O37       1.0  0.65719  0.39475  0.70468  1.0000
  O   O38       1.0  0.61134  0.34897  0.70483  1.0000
  O   O39       1.0  0.61128  0.30313  0.65909  1.0000
  O   O40       1.0  0.65707  0.30308  0.61320  1.0000
  O   O41       1.0  0.70292  0.34886  0.61305  1.0000
  O   O42       1.0  0.70298  0.39470  0.65878  1.0000
  C   C43       1.0  0.63304  0.66156  0.68313  1.0000
  C   C44       1.0  0.65717  0.63746  0.68304  1.0000
  C   C45       1.0  0.68127  0.63750  0.65888  1.0000
  C   C46       1.0  0.68123  0.66163  0.63481  1.0000
  C   C47       1.0  0.65709  0.68573  0.63490  1.0000
  C   C48       1.0  0.63300  0.68569  0.65906  1.0000
  O   O43       1.0  0.61135  0.66152  0.70487  1.0000
  O   O44       1.0  0.65721  0.61574  0.70470  1.0000
  O   O45       1.0  0.70299  0.61582  0.65880  1.0000
  O   O46       1.0  0.70291  0.66167  0.61307  1.0000
  O   O47       1.0  0.65706  0.70745  0.61324  1.0000
  O   O48       1.0  0.61128  0.70737  0.65914  1.0000
  C   C49       1.0  0.30096  0.30614  0.48550  1.0000
  C   C50       1.0  0.30096  0.30613  0.51960  1.0000
  C   C51       1.0  0.28009  0.28525  0.53665  1.0000
  C   C52       1.0  0.25921  0.26436  0.51960  1.0000
  C   C53       1.0  0.25921  0.26436  0.48550  1.0000
  C   C54       1.0  0.28009  0.28525  0.46845  1.0000
  O   O49       1.0  0.31976  0.32493  0.47016  1.0000
  O   O50       1.0  0.31976  0.32493  0.53495  1.0000
  O   O51       1.0  0.28008  0.28525  0.56735  1.0000
  O   O52       1.0  0.24041  0.24556  0.53495  1.0000
  O   O53       1.0  0.24041  0.24557  0.47015  1.0000
  O   O54       1.0  0.28009  0.28525  0.43776  1.0000
  C   C55       1.0  0.70037  0.30613  0.51961  1.0000
  C   C56       1.0  0.70037  0.30613  0.48550  1.0000
  C   C57       1.0  0.72125  0.28525  0.46845  1.0000
  C   C58       1.0  0.74213  0.26436  0.48550  1.0000
  C   C59       1.0  0.74213  0.26436  0.51960  1.0000
  C   C60       1.0  0.72125  0.28524  0.53666  1.0000
  O   O55       1.0  0.68158  0.32493  0.53495  1.0000
  O   O56       1.0  0.68158  0.32493  0.47016  1.0000
  O   O57       1.0  0.72125  0.28525  0.43776  1.0000
  O   O58       1.0  0.76092  0.24557  0.47015  1.0000
  O   O59       1.0  0.76092  0.24556  0.53495  1.0000
  O   O60       1.0  0.72125  0.28524  0.56735  1.0000
  C   C61       1.0  0.70033  0.70443  0.48552  1.0000
  C   C62       1.0  0.70034  0.70443  0.51962  1.0000
  C   C63       1.0  0.72122  0.72531  0.53667  1.0000
  C   C64       1.0  0.74209  0.74620  0.51962  1.0000
  C   C65       1.0  0.74209  0.74620  0.48551  1.0000
  C   C66       1.0  0.72121  0.72531  0.46846  1.0000
  O   O61       1.0  0.68154  0.68563  0.47017  1.0000
  O   O62       1.0  0.68155  0.68563  0.53496  1.0000
  O   O63       1.0  0.72122  0.72531  0.56736  1.0000
  O   O64       1.0  0.76089  0.76500  0.53496  1.0000
  O   O65       1.0  0.76088  0.76500  0.47017  1.0000
  O   O66       1.0  0.72121  0.72531  0.43777  1.0000
  C   C67       1.0  0.30103  0.70442  0.48551  1.0000
  C   C68       1.0  0.30103  0.70442  0.51962  1.0000
  C   C69       1.0  0.28015  0.72530  0.53667  1.0000
  C   C70       1.0  0.25927  0.74619  0.51961  1.0000
  C   C71       1.0  0.25927  0.74619  0.48551  1.0000
  C   C72       1.0  0.28015  0.72530  0.46846  1.0000
  O   O67       1.0  0.31982  0.68562  0.47017  1.0000
  O   O68       1.0  0.31982  0.68562  0.53496  1.0000
  O   O69       1.0  0.28015  0.72530  0.56736  1.0000
  O   O70       1.0  0.24048  0.76498  0.53496  1.0000
  O   O71       1.0  0.24048  0.76499  0.47017  1.0000
  O   O72       1.0  0.28015  0.72530  0.43777  1.0000
  C   C73       1.0  0.48360  0.30621  0.30256  1.0000
  C   C74       1.0  0.51774  0.30621  0.30256  1.0000
  C   C75       1.0  0.53481  0.28534  0.28170  1.0000
  C   C76       1.0  0.51774  0.26447  0.26083  1.0000
  C   C77       1.0  0.48360  0.26447  0.26083  1.0000
  C   C78       1.0  0.46653  0.28534  0.28169  1.0000
  O   O73       1.0  0.46824  0.32499  0.32134  1.0000
  O   O74       1.0  0.53311  0.32500  0.32135  1.0000
  O   O75       1.0  0.56554  0.28534  0.28170  1.0000
  O   O76       1.0  0.53311  0.24568  0.24205  1.0000
  O   O77       1.0  0.46824  0.24568  0.24204  1.0000
  O   O78       1.0  0.43581  0.28534  0.28169  1.0000
  C   C79       1.0  0.72130  0.53933  0.28284  1.0000
  C   C80       1.0  0.74219  0.52230  0.26195  1.0000
  C   C81       1.0  0.74219  0.48823  0.26195  1.0000
  C   C82       1.0  0.72130  0.47121  0.28285  1.0000
  C   C83       1.0  0.70041  0.48824  0.30375  1.0000
  C   C84       1.0  0.70041  0.52230  0.30374  1.0000
  O   O79       1.0  0.72130  0.56999  0.28284  1.0000
  O   O80       1.0  0.76100  0.53762  0.24314  1.0000
  O   O81       1.0  0.76099  0.47290  0.24315  1.0000
  O   O82       1.0  0.72130  0.44055  0.28285  1.0000
  O   O83       1.0  0.68160  0.47291  0.32255  1.0000
  O   O84       1.0  0.68161  0.53763  0.32255  1.0000
  C   C85       1.0  0.48361  0.70434  0.30254  1.0000
  C   C86       1.0  0.51775  0.70434  0.30254  1.0000
  C   C87       1.0  0.53482  0.72521  0.28167  1.0000
  C   C88       1.0  0.51775  0.74608  0.26080  1.0000
  C   C89       1.0  0.48361  0.74608  0.26080  1.0000
  C   C90       1.0  0.46654  0.72521  0.28167  1.0000
  O   O85       1.0  0.46824  0.68555  0.32132  1.0000
  O   O86       1.0  0.53311  0.68555  0.32132  1.0000
  O   O87       1.0  0.56555  0.72521  0.28167  1.0000
  O   O88       1.0  0.53311  0.76487  0.24202  1.0000
  O   O89       1.0  0.46825  0.76487  0.24202  1.0000
  O   O90       1.0  0.43581  0.72521  0.28167  1.0000
  C   C91       1.0  0.25915  0.52230  0.26194  1.0000
  C   C92       1.0  0.28004  0.53933  0.28283  1.0000
  C   C93       1.0  0.30093  0.52230  0.30373  1.0000
  C   C94       1.0  0.30093  0.48824  0.30373  1.0000
  C   C95       1.0  0.28004  0.47121  0.28284  1.0000
  C   C96       1.0  0.25915  0.48823  0.26194  1.0000
  O   O91       1.0  0.24034  0.53762  0.24313  1.0000
  O   O92       1.0  0.28004  0.56999  0.28283  1.0000
  O   O93       1.0  0.31974  0.53763  0.32254  1.0000
  O   O94       1.0  0.31974  0.47291  0.32254  1.0000
  O   O95       1.0  0.28004  0.44055  0.28284  1.0000
  O   O96       1.0  0.24035  0.47290  0.24313  1.0000
  C   C97       1.0  0.48361  0.70429  0.70262  1.0000
  C   C98       1.0  0.51775  0.70429  0.70262  1.0000
  C   C99       1.0  0.53482  0.72516  0.72349  1.0000
  C   C100      1.0  0.51775  0.74603  0.74436  1.0000
  C   C101      1.0  0.48361  0.74603  0.74436  1.0000
  C   C102      1.0  0.46654  0.72516  0.72349  1.0000
  O   O97       1.0  0.46825  0.68550  0.68384  1.0000
  O   O98       1.0  0.53312  0.68550  0.68384  1.0000
  O   O99       1.0  0.56555  0.72516  0.72349  1.0000
  O   O100      1.0  0.53312  0.76482  0.76314  1.0000
  O   O101      1.0  0.46825  0.76482  0.76314  1.0000
  O   O102      1.0  0.43581  0.72516  0.72349  1.0000
  C   C103      1.0  0.25912  0.48821  0.74315  1.0000
  C   C104      1.0  0.28001  0.47119  0.72225  1.0000
  C   C105      1.0  0.30090  0.48822  0.70136  1.0000
  C   C106      1.0  0.30090  0.52228  0.70136  1.0000
  C   C107      1.0  0.28001  0.53931  0.72226  1.0000
  C   C108      1.0  0.25912  0.52228  0.74315  1.0000
  O   O103      1.0  0.24031  0.47288  0.76195  1.0000
  O   O104      1.0  0.28001  0.44053  0.72225  1.0000
  O   O105      1.0  0.31971  0.47289  0.68255  1.0000
  O   O106      1.0  0.31971  0.53761  0.68255  1.0000
  O   O107      1.0  0.28001  0.56997  0.72226  1.0000
  O   O108      1.0  0.24031  0.53760  0.76196  1.0000
  C   C109      1.0  0.48361  0.30616  0.70253  1.0000
  C   C110      1.0  0.51775  0.30616  0.70253  1.0000
  C   C111      1.0  0.53482  0.28529  0.72340  1.0000
  C   C112      1.0  0.51775  0.26442  0.74427  1.0000
  C   C113      1.0  0.48361  0.26441  0.74427  1.0000
  C   C114      1.0  0.46654  0.28529  0.72340  1.0000
  O   O109      1.0  0.46824  0.32494  0.68375  1.0000
  O   O110      1.0  0.53311  0.32494  0.68375  1.0000
  O   O111      1.0  0.56554  0.28529  0.72340  1.0000
  O   O112      1.0  0.53311  0.24563  0.76305  1.0000
  O   O113      1.0  0.46824  0.24563  0.76305  1.0000
  O   O114      1.0  0.43581  0.28529  0.72340  1.0000
  C   C115      1.0  0.72136  0.47119  0.72225  1.0000
  C   C116      1.0  0.74225  0.48822  0.74315  1.0000
  C   C117      1.0  0.74225  0.52228  0.74315  1.0000
  C   C118      1.0  0.72136  0.53931  0.72226  1.0000
  C   C119      1.0  0.70046  0.52228  0.70136  1.0000
  C   C120      1.0  0.70046  0.48822  0.70135  1.0000
  O   O115      1.0  0.72136  0.44053  0.72225  1.0000
  O   O116      1.0  0.76105  0.47289  0.76195  1.0000
  O   O117      1.0  0.76106  0.53760  0.76196  1.0000
  O   O118      1.0  0.72136  0.56997  0.72226  1.0000
  O   O119      1.0  0.68166  0.53761  0.68255  1.0000
  O   O120      1.0  0.68166  0.47289  0.68255  1.0000
  C   C121      1.0  0.12806  0.93145  0.50254  1.0000
  C   C122      1.0  0.13751  0.89499  0.50254  1.0000
  C   C123      1.0  0.11079  0.86829  0.50255  1.0000
  C   C124      1.0  0.07439  0.87782  0.50255  1.0000
  C   C125      1.0  0.06606  0.91413  0.50254  1.0000
  C   C126      1.0  0.09183  0.93987  0.50254  1.0000
  C   C127      1.0  0.07485  0.97307  0.50254  1.0000
  N   N1        1.0  0.03806  0.96790  0.50254  1.0000
  C   C128      1.0  0.03287  0.93113  0.50254  1.0000
  N   N2        1.0  0.00010  0.91353  0.50255  1.0000
  C   C129      1.0  0.96836  0.93111  0.50255  1.0000
  N   N3        1.0  0.96317  0.96789  0.50254  1.0000
  C   C130      1.0  0.92643  0.97309  0.50254  1.0000
  C   C131      1.0  0.90948  0.93988  0.50255  1.0000
  C   C132      1.0  0.93516  0.91411  0.50255  1.0000
  N   N4        1.0  0.96316  0.04263  0.50254  1.0000
  C   C133      1.0  0.92645  0.03744  0.50254  1.0000
  N   N5        1.0  0.90887  0.00528  0.50254  1.0000
  C   C134      1.0  0.90947  0.07067  0.50254  1.0000
  C   C135      1.0  0.93519  0.09641  0.50254  1.0000
  C   C136      1.0  0.96836  0.07941  0.50254  1.0000
  C   C137      1.0  0.92681  0.87782  0.50255  1.0000
  C   C138      1.0  0.89049  0.86827  0.50255  1.0000
  C   C139      1.0  0.86383  0.89496  0.50255  1.0000
  C   C140      1.0  0.87327  0.93143  0.50255  1.0000
  C   C141      1.0  0.92683  0.13271  0.50254  1.0000
  C   C142      1.0  0.89048  0.14227  0.50254  1.0000
  C   C143      1.0  0.86383  0.11556  0.50254  1.0000
  C   C144      1.0  0.87328  0.07910  0.50254  1.0000
  N   N6        1.0  0.03808  0.04265  0.50254  1.0000
  C   C145      1.0  0.03286  0.07940  0.50254  1.0000
  N   N7        1.0  0.00010  0.09698  0.50254  1.0000
  C   C146      1.0  0.06606  0.09642  0.50254  1.0000
  C   C147      1.0  0.09179  0.07066  0.50254  1.0000
  C   C148      1.0  0.07484  0.03745  0.50254  1.0000
  C   C149      1.0  0.12802  0.07911  0.50254  1.0000
  C   C150      1.0  0.13749  0.11558  0.50254  1.0000
  C   C151      1.0  0.11078  0.14227  0.50254  1.0000
  C   C152      1.0  0.07439  0.13271  0.50254  1.0000
  N   N8        1.0  0.09245  0.00524  0.50254  1.0000
  H   H1        1.0  0.14734  0.95127  0.50254  1.0000
  H   H2        1.0  0.05455  0.85854  0.50255  1.0000
  H   H3        1.0  0.94663  0.85853  0.50255  1.0000
  H   H4        1.0  0.85401  0.95126  0.50255  1.0000
  H   H5        1.0  0.94663  0.15199  0.50254  1.0000
  H   H6        1.0  0.85403  0.05925  0.50254  1.0000
  H   H7        1.0  0.14731  0.05928  0.50254  1.0000
  H   H8        1.0  0.05455  0.15200  0.50254  1.0000
  C   C153      1.0  0.17353  0.12547  0.50254  1.0000
  C   C154      1.0  0.18311  0.16172  0.50254  1.0000
  C   C155      1.0  0.15670  0.18812  0.50254  1.0000
  C   C156      1.0  0.12057  0.17841  0.50254  1.0000
  C   C157      1.0  0.17358  0.88506  0.50254  1.0000
  C   C158      1.0  0.18317  0.84883  0.50255  1.0000
  C   C159      1.0  0.15676  0.82243  0.50255  1.0000
  C   C160      1.0  0.12062  0.83213  0.50255  1.0000
  C   C161      1.0  0.88068  0.83210  0.50255  1.0000
  C   C162      1.0  0.84457  0.82242  0.50255  1.0000
  C   C163      1.0  0.81821  0.84885  0.50255  1.0000
  C   C164      1.0  0.82782  0.88507  0.50255  1.0000
  C   C165      1.0  0.88067  0.17843  0.50254  1.0000
  C   C166      1.0  0.84460  0.18812  0.50254  1.0000
  C   C167      1.0  0.81824  0.16173  0.50254  1.0000
  C   C168      1.0  0.82784  0.12550  0.50254  1.0000
  H   H9        1.0  0.19312  0.10597  0.50254  1.0000
  O   O121      1.0  0.21825  0.17128  0.50254  1.0000
  O   O122      1.0  0.16616  0.22337  0.50254  1.0000
  H   H10       1.0  0.10106  0.19805  0.50254  1.0000
  H   H11       1.0  0.19318  0.90456  0.50254  1.0000
  O   O123      1.0  0.21832  0.83925  0.50255  1.0000
  O   O124      1.0  0.16622  0.78717  0.50255  1.0000
  H   H12       1.0  0.10113  0.81251  0.50255  1.0000
  H   H13       1.0  0.90014  0.81249  0.50255  1.0000
  O   O125      1.0  0.83509  0.78717  0.50255  1.0000
  O   O126      1.0  0.78312  0.83927  0.50255  1.0000
  H   H14       1.0  0.80825  0.90458  0.50255  1.0000
  H   H15       1.0  0.90012  0.19802  0.50254  1.0000
  O   O127      1.0  0.83510  0.22336  0.50254  1.0000
  O   O128      1.0  0.78314  0.17128  0.50254  1.0000
  H   H16       1.0  0.80826  0.10599  0.50254  1.0000
  Ni  Ni1       1.0  0.00010  0.00526  0.50254  1.0000
  C   C169      1.0  0.50068  0.07909  0.12980  1.0000
  C   C170      1.0  0.50068  0.11555  0.13924  1.0000
  C   C171      1.0  0.50068  0.14224  0.11254  1.0000
  C   C172      1.0  0.50068  0.13271  0.07619  1.0000
  C   C173      1.0  0.50068  0.09641  0.06787  1.0000
  C   C174      1.0  0.50068  0.07066  0.09361  1.0000
  C   C175      1.0  0.50068  0.03746  0.07666  1.0000
  N   N9        1.0  0.50068  0.04263  0.03991  1.0000
  C   C176      1.0  0.50068  0.07940  0.03471  1.0000
  N   N10       1.0  0.50068  0.09700  0.00247  1.0000
  C   C177      1.0  0.50068  0.07941  0.97028  1.0000
  N   N11       1.0  0.50068  0.04264  0.96510  1.0000
  C   C178      1.0  0.50068  0.03744  0.92841  1.0000
  C   C179      1.0  0.50068  0.07065  0.91147  1.0000
  C   C180      1.0  0.50068  0.09641  0.93712  1.0000
  N   N12       1.0  0.50068  0.96789  0.96510  1.0000
  C   C181      1.0  0.50068  0.97308  0.92842  1.0000
  N   N13       1.0  0.50068  0.00525  0.91087  1.0000
  C   C182      1.0  0.50068  0.93985  0.91147  1.0000
  C   C183      1.0  0.50068  0.91411  0.93716  1.0000
  C   C184      1.0  0.50068  0.93112  0.97029  1.0000
  C   C185      1.0  0.50068  0.13270  0.92878  1.0000
  C   C186      1.0  0.50068  0.14225  0.89250  1.0000
  C   C187      1.0  0.50068  0.11555  0.86587  1.0000
  C   C188      1.0  0.50068  0.07908  0.87530  1.0000
  C   C189      1.0  0.50068  0.87781  0.92882  1.0000
  C   C190      1.0  0.50068  0.86825  0.89251  1.0000
  C   C191      1.0  0.50068  0.89496  0.86589  1.0000
  C   C192      1.0  0.50068  0.93142  0.87532  1.0000
  N   N14       1.0  0.50068  0.96788  0.03993  1.0000
  C   C193      1.0  0.50068  0.93113  0.03472  1.0000
  N   N15       1.0  0.50068  0.91355  0.00249  1.0000
  C   C194      1.0  0.50068  0.91411  0.06788  1.0000
  C   C195      1.0  0.50068  0.93987  0.09359  1.0000
  C   C196      1.0  0.50068  0.97308  0.07664  1.0000
  C   C197      1.0  0.50068  0.93143  0.12977  1.0000
  C   C198      1.0  0.50068  0.89496  0.13923  1.0000
  C   C199      1.0  0.50068  0.86826  0.11255  1.0000
  C   C200      1.0  0.50068  0.87782  0.07621  1.0000
  N   N16       1.0  0.50068  0.00529  0.09423  1.0000
  H   H17       1.0  0.50068  0.05927  0.14906  1.0000
  H   H18       1.0  0.50068  0.15200  0.05636  1.0000
  H   H19       1.0  0.50068  0.15199  0.94857  1.0000
  H   H20       1.0  0.50068  0.05925  0.85607  1.0000
  H   H21       1.0  0.50068  0.85853  0.94859  1.0000
  H   H22       1.0  0.50068  0.95126  0.85609  1.0000
  H   H23       1.0  0.50068  0.95126  0.14903  1.0000
  H   H24       1.0  0.50068  0.85853  0.05639  1.0000
  C   C201      1.0  0.50068  0.88507  0.17523  1.0000
  C   C202      1.0  0.50068  0.84883  0.18480  1.0000
  C   C203      1.0  0.50068  0.82242  0.15843  1.0000
  C   C204      1.0  0.50068  0.83213  0.12234  1.0000
  C   C205      1.0  0.50068  0.12549  0.17526  1.0000
  C   C206      1.0  0.50068  0.16172  0.18484  1.0000
  C   C207      1.0  0.50068  0.18811  0.15846  1.0000
  C   C208      1.0  0.50068  0.17840  0.12236  1.0000
  C   C209      1.0  0.50068  0.17842  0.88269  1.0000
  C   C210      1.0  0.50068  0.18809  0.84663  1.0000
  C   C211      1.0  0.50068  0.16166  0.82029  1.0000
  C   C212      1.0  0.50068  0.12544  0.82990  1.0000
  C   C213      1.0  0.50068  0.83209  0.88271  1.0000
  C   C214      1.0  0.50068  0.82240  0.84669  1.0000
  C   C215      1.0  0.50068  0.84879  0.82036  1.0000
  C   C216      1.0  0.50068  0.88502  0.82994  1.0000
  H   H25       1.0  0.50068  0.90457  0.19480  1.0000
  O   O129      1.0  0.50068  0.83927  0.21990  1.0000
  O   O130      1.0  0.50068  0.78717  0.16788  1.0000
  H   H26       1.0  0.50068  0.81249  0.10285  1.0000
  H   H27       1.0  0.50068  0.10598  0.19484  1.0000
  O   O131      1.0  0.50068  0.17130  0.21995  1.0000
  O   O132      1.0  0.50068  0.22338  0.16790  1.0000
  H   H28       1.0  0.50068  0.19802  0.10289  1.0000
  H   H29       1.0  0.50068  0.19803  0.90213  1.0000
  O   O133      1.0  0.50068  0.22335  0.83715  1.0000
  O   O134      1.0  0.50068  0.17124  0.78525  1.0000
  H   H30       1.0  0.50068  0.10593  0.81035  1.0000
  H   H31       1.0  0.50068  0.81250  0.90214  1.0000
  O   O135      1.0  0.50069  0.78716  0.83720  1.0000
  O   O136      1.0  0.50069  0.83923  0.78530  1.0000
  H   H32       1.0  0.50068  0.90452  0.81038  1.0000
  Ni  Ni2       1.0  0.50068  0.00526  0.00251  1.0000
  C   C217      1.0  0.87329  0.50522  0.07646  1.0000
  C   C218      1.0  0.86384  0.50522  0.11296  1.0000
  C   C219      1.0  0.89056  0.50522  0.13969  1.0000
  C   C220      1.0  0.92696  0.50522  0.13015  1.0000
  C   C221      1.0  0.93529  0.50522  0.09380  1.0000
  C   C222      1.0  0.90953  0.50521  0.06803  1.0000
  C   C223      1.0  0.92650  0.50521  0.03479  1.0000
  N   N17       1.0  0.96329  0.50521  0.03997  1.0000
  C   C224      1.0  0.96848  0.50521  0.07678  1.0000
  N   N18       1.0  0.00010  0.50522  0.09440  1.0000
  C   C225      1.0  0.03299  0.50521  0.07680  1.0000
  N   N19       1.0  0.03818  0.50521  0.03998  1.0000
  C   C226      1.0  0.07492  0.50521  0.03477  1.0000
  C   C227      1.0  0.09187  0.50521  0.06802  1.0000
  C   C228      1.0  0.06619  0.50522  0.09382  1.0000
  N   N20       1.0  0.03819  0.50521  0.96515  1.0000
  C   C229      1.0  0.07490  0.50521  0.97034  1.0000
  N   N21       1.0  0.09248  0.50521  0.00255  1.0000
  C   C230      1.0  0.09188  0.50521  0.93708  1.0000
  C   C231      1.0  0.06616  0.50521  0.91131  1.0000
  C   C232      1.0  0.03299  0.50521  0.92833  1.0000
  C   C233      1.0  0.07454  0.50522  0.13015  1.0000
  C   C234      1.0  0.11086  0.50522  0.13971  1.0000
  C   C235      1.0  0.13752  0.50522  0.11299  1.0000
  C   C236      1.0  0.12808  0.50521  0.07647  1.0000
  C   C237      1.0  0.07452  0.50521  0.87497  1.0000
  C   C238      1.0  0.11087  0.50521  0.86539  1.0000
  C   C239      1.0  0.13752  0.50521  0.89214  1.0000
  C   C240      1.0  0.12807  0.50521  0.92864  1.0000
  N   N22       1.0  0.96327  0.50521  0.96513  1.0000
  C   C241      1.0  0.96849  0.50521  0.92834  1.0000
  N   N23       1.0  0.00010  0.50521  0.91074  1.0000
  C   C242      1.0  0.93529  0.50521  0.91130  1.0000
  C   C243      1.0  0.90956  0.50521  0.93708  1.0000
  C   C244      1.0  0.92651  0.50521  0.97033  1.0000
  C   C245      1.0  0.87333  0.50521  0.92863  1.0000
  C   C246      1.0  0.86386  0.50521  0.89212  1.0000
  C   C247      1.0  0.89057  0.50521  0.86539  1.0000
  C   C248      1.0  0.92696  0.50521  0.87496  1.0000
  N   N24       1.0  0.90890  0.50521  0.00258  1.0000
  H   H33       1.0  0.85401  0.50521  0.05662  1.0000
  H   H34       1.0  0.94680  0.50522  0.14945  1.0000
  H   H35       1.0  0.05472  0.50522  0.14946  1.0000
  H   H36       1.0  0.14734  0.50521  0.05662  1.0000
  H   H37       1.0  0.05472  0.50521  0.85566  1.0000
  H   H38       1.0  0.14732  0.50521  0.94851  1.0000
  H   H39       1.0  0.85404  0.50521  0.94848  1.0000
  H   H40       1.0  0.94680  0.50521  0.85566  1.0000
  C   C249      1.0  0.82782  0.50521  0.88221  1.0000
  C   C250      1.0  0.81824  0.50521  0.84593  1.0000
  C   C251      1.0  0.84465  0.50521  0.81950  1.0000
  C   C252      1.0  0.88078  0.50521  0.82921  1.0000
  C   C253      1.0  0.82777  0.50522  0.12290  1.0000
  C   C254      1.0  0.81818  0.50522  0.15918  1.0000
  C   C255      1.0  0.84459  0.50522  0.18560  1.0000
  C   C256      1.0  0.88073  0.50522  0.17589  1.0000
  C   C257      1.0  0.12067  0.50522  0.17592  1.0000
  C   C258      1.0  0.15678  0.50522  0.18561  1.0000
  C   C259      1.0  0.18314  0.50522  0.15915  1.0000
  C   C260      1.0  0.17353  0.50522  0.12289  1.0000
  C   C261      1.0  0.12068  0.50521  0.82919  1.0000
  C   C262      1.0  0.15675  0.50521  0.81950  1.0000
  C   C263      1.0  0.18311  0.50521  0.84592  1.0000
  C   C264      1.0  0.17351  0.50521  0.88219  1.0000
  H   H41       1.0  0.80823  0.50521  0.90174  1.0000
  O   O137      1.0  0.78310  0.50521  0.83636  1.0000
  O   O138      1.0  0.83519  0.50521  0.78420  1.0000
  H   H42       1.0  0.90029  0.50521  0.80956  1.0000
  H   H43       1.0  0.80817  0.50522  0.10337  1.0000
  O   O139      1.0  0.78303  0.50522  0.16876  1.0000
  O   O140      1.0  0.83513  0.50522  0.22091  1.0000
  H   H44       1.0  0.90022  0.50522  0.19553  1.0000
  H   H45       1.0  0.10121  0.50522  0.19556  1.0000
  O   O141      1.0  0.16626  0.50522  0.22090  1.0000
  O   O142      1.0  0.21823  0.50522  0.16874  1.0000
  H   H46       1.0  0.19310  0.50522  0.10336  1.0000
  H   H47       1.0  0.10123  0.50521  0.80958  1.0000
  O   O143      1.0  0.16625  0.50520  0.78422  1.0000
  O   O144      1.0  0.21821  0.50521  0.83635  1.0000
  H   H48       1.0  0.19309  0.50521  0.90172  1.0000
  Ni  Ni3       1.0  0.00010  0.50521  0.00256  1.0000
  Zn  Zn1       1.0  0.31064  0.31554  0.42297  1.0000
  Zn  Zn2       1.0  0.69070  0.31554  0.42298  1.0000
  Zn  Zn3       1.0  0.69068  0.69501  0.42298  1.0000
  Zn  Zn4       1.0  0.31068  0.69501  0.42297  1.0000
  Zn  Zn5       1.0  0.31068  0.69500  0.58216  1.0000
  Zn  Zn6       1.0  0.31064  0.31553  0.58214  1.0000
  Zn  Zn7       1.0  0.69070  0.31553  0.58214  1.0000
  Zn  Zn8       1.0  0.69068  0.69501  0.58216  1.0000
  Zn  Zn9       1.0  0.42103  0.31562  0.31234  1.0000
  Zn  Zn10      1.0  0.69076  0.42574  0.31305  1.0000
  Zn  Zn11      1.0  0.58032  0.69492  0.31231  1.0000
  Zn  Zn12      1.0  0.31058  0.58480  0.31303  1.0000
  Zn  Zn13      1.0  0.42104  0.69489  0.69283  1.0000
  Zn  Zn14      1.0  0.31056  0.42572  0.69207  1.0000
  Zn  Zn15      1.0  0.58032  0.31558  0.69277  1.0000
  Zn  Zn16      1.0  0.69080  0.58479  0.69208  1.0000
  Zn  Zn17      1.0  0.31058  0.42574  0.31304  1.0000
  Zn  Zn18      1.0  0.31056  0.58478  0.69208  1.0000
  Zn  Zn19      1.0  0.42103  0.31558  0.69277  1.0000
  Zn  Zn20      1.0  0.69080  0.42572  0.69206  1.0000
  Zn  Zn21      1.0  0.58032  0.69489  0.69284  1.0000
  Zn  Zn22      1.0  0.69076  0.58480  0.31304  1.0000
  Zn  Zn23      1.0  0.42104  0.69492  0.31231  1.0000
  Zn  Zn24      1.0  0.58031  0.31562  0.31234  1.0000
  Zn  Zn25      1.0  0.21631  0.22145  0.50254  1.0000
  Zn  Zn26      1.0  0.78502  0.22145  0.50255  1.0000
  Zn  Zn27      1.0  0.78499  0.78911  0.50256  1.0000
  Zn  Zn28      1.0  0.21637  0.78910  0.50255  1.0000
  Zn  Zn29      1.0  0.50068  0.22150  0.21798  1.0000
  Zn  Zn30      1.0  0.78504  0.50524  0.21899  1.0000
  Zn  Zn31      1.0  0.50068  0.78904  0.21795  1.0000
  Zn  Zn32      1.0  0.21630  0.50524  0.21897  1.0000
  Zn  Zn33      1.0  0.50068  0.78900  0.78719  1.0000
  Zn  Zn34      1.0  0.21627  0.50522  0.78612  1.0000
  Zn  Zn35      1.0  0.50068  0.22146  0.78712  1.0000
  Zn  Zn36      1.0  0.78510  0.50523  0.78612  1.0000
