data_image0
_chemical_formula_structural       C7NCNCNC3NCNC11NCNC7NH8C16HO2H2O2H2O2H2O2HNiC7NCNCNC3NCNC11NCNC7NH8C16HO2H2O2H2O2H2O2HNiC7NCNCNC3NCNC11NCNC7NH8C16HO2H2O2H2O2H2O2HNiC7NCNCNC3NCNC11NCNC7NH8C16HO2H2O2H2O2H2O2HNiC18HO2H2O2H2O2HC18HO2H2O2H2O2HC18HO2H2O2H2O2HC18HO2H2O2H2O2HCu2Zn12
_chemical_formula_sum              "C264 N32 H88 O56 Ni4 Cu2 Zn12"
_cell_length_a       45.0717
_cell_length_b       45.0717
_cell_length_c       50.1447
_cell_angle_alpha    90.2308
_cell_angle_beta     90.2308
_cell_angle_gamma    89.9967

_space_group_name_H-M_alt    "P 1"
_space_group_IT_number       1

loop_
  _space_group_symop_operation_xyz
  'x, y, z'

loop_
  _atom_site_type_symbol
  _atom_site_label
  _atom_site_symmetry_multiplicity
  _atom_site_fract_x
  _atom_site_fract_y
  _atom_site_fract_z
  _atom_site_occupancy
  C   C1        1.0  0.87410  0.46952  0.97255  1.0000
  C   C2        1.0  0.84538  0.46256  0.98815  1.0000
  C   C3        1.0  0.84544  0.46258  0.01908  1.0000
  C   C4        1.0  0.87421  0.46954  0.03466  1.0000
  C   C5        1.0  0.90213  0.47630  0.01850  1.0000
  C   C6        1.0  0.90208  0.47629  0.98868  1.0000
  C   C7        1.0  0.93347  0.48389  0.97933  1.0000
  N   N1        1.0  0.95330  0.48869  0.00364  1.0000
  C   C8        1.0  0.93357  0.48392  0.02792  1.0000
  N   N2        1.0  0.94280  0.48615  0.05680  1.0000
  C   C9        1.0  0.97399  0.49370  0.06531  1.0000
  N   N3        1.0  0.00010  0.50006  0.04706  1.0000
  C   C10       1.0  0.02651  0.50642  0.06535  1.0000
  C   C11       1.0  0.01637  0.50397  0.09438  1.0000
  C   C12       1.0  0.98417  0.49617  0.09439  1.0000
  N   N4        1.0  0.04697  0.51137  0.00385  1.0000
  C   C13       1.0  0.06674  0.51616  0.02813  1.0000
  N   N5        1.0  0.05764  0.51396  0.05692  1.0000
  C   C14       1.0  0.09815  0.52376  0.01876  1.0000
  C   C15       1.0  0.09812  0.52376  0.98898  1.0000
  C   C16       1.0  0.06670  0.51615  0.97958  1.0000
  C   C17       1.0  0.96671  0.49194  0.12021  1.0000
  C   C18       1.0  0.98351  0.49601  0.14679  1.0000
  C   C19       1.0  0.01691  0.50409  0.14680  1.0000
  C   C20       1.0  0.03379  0.50818  0.12025  1.0000
  C   C21       1.0  0.12605  0.53052  0.97283  1.0000
  C   C22       1.0  0.15481  0.53748  0.98837  1.0000
  C   C23       1.0  0.15482  0.53749  0.01926  1.0000
  C   C24       1.0  0.12610  0.53053  0.03487  1.0000
  N   N6        1.0  0.00010  0.50001  0.96042  1.0000
  C   C25       1.0  0.02626  0.50636  0.94219  1.0000
  N   N7        1.0  0.05748  0.51392  0.95074  1.0000
  C   C26       1.0  0.01610  0.50390  0.91311  1.0000
  C   C27       1.0  0.98387  0.49609  0.91308  1.0000
  C   C28       1.0  0.97373  0.49364  0.94211  1.0000
  C   C29       1.0  0.96644  0.49187  0.88720  1.0000
  C   C30       1.0  0.98331  0.49596  0.86063  1.0000
  C   C31       1.0  0.01673  0.50405  0.86068  1.0000
  C   C32       1.0  0.03357  0.50813  0.88730  1.0000
  N   N8        1.0  0.94256  0.48609  0.95053  1.0000
  H   H1        1.0  0.87441  0.46959  0.94991  1.0000
  H   H2        1.0  0.87460  0.46964  0.05732  1.0000
  H   H3        1.0  0.94223  0.48601  0.11988  1.0000
  H   H4        1.0  0.05826  0.51411  0.11994  1.0000
  H   H5        1.0  0.12570  0.53044  0.95021  1.0000
  H   H6        1.0  0.12576  0.53045  0.05750  1.0000
  H   H7        1.0  0.94195  0.48595  0.88749  1.0000
  H   H8        1.0  0.05806  0.51406  0.88765  1.0000
  C   C33       1.0  0.96690  0.49199  0.83402  1.0000
  C   C34       1.0  0.98355  0.49602  0.80751  1.0000
  C   C35       1.0  0.01661  0.50402  0.80755  1.0000
  C   C36       1.0  0.03319  0.50804  0.83411  1.0000
  C   C37       1.0  0.81657  0.45559  0.97299  1.0000
  C   C38       1.0  0.78790  0.44865  0.98837  1.0000
  C   C39       1.0  0.78795  0.44866  0.01894  1.0000
  C   C40       1.0  0.81667  0.45561  0.03428  1.0000
  C   C41       1.0  0.96705  0.49202  0.17338  1.0000
  C   C42       1.0  0.98363  0.49604  0.19991  1.0000
  C   C43       1.0  0.01668  0.50404  0.19991  1.0000
  C   C44       1.0  0.03330  0.50806  0.17340  1.0000
  C   C45       1.0  0.18357  0.54445  0.97315  1.0000
  C   C46       1.0  0.21223  0.55139  0.98846  1.0000
  C   C47       1.0  0.21226  0.55139  0.01900  1.0000
  C   C48       1.0  0.18359  0.54445  0.03438  1.0000
  H   H9        1.0  0.94243  0.48606  0.83394  1.0000
  O   O1        1.0  0.96750  0.49213  0.78161  1.0000
  O   O2        1.0  0.03272  0.50792  0.78169  1.0000
  H   H10       1.0  0.05770  0.51397  0.83406  1.0000
  H   H11       1.0  0.81648  0.45556  0.95035  1.0000
  O   O3        1.0  0.75988  0.44186  0.97354  1.0000
  O   O4        1.0  0.75998  0.44189  0.03385  1.0000
  H   H12       1.0  0.81663  0.45560  0.05693  1.0000
  H   H13       1.0  0.94259  0.48610  0.17345  1.0000
  O   O5        1.0  0.96753  0.49214  0.22579  1.0000
  O   O6        1.0  0.03268  0.50791  0.22579  1.0000
  H   H14       1.0  0.05776  0.51399  0.17346  1.0000
  H   H15       1.0  0.18363  0.54446  0.95055  1.0000
  O   O7        1.0  0.24022  0.55816  0.97359  1.0000
  O   O8        1.0  0.24023  0.55817  0.03381  1.0000
  H   H16       1.0  0.18367  0.54447  0.05701  1.0000
  Ni  Ni1       1.0  0.00010  0.50003  0.00374  1.0000
  C   C49       1.0  0.00826  0.46637  0.38727  1.0000
  C   C50       1.0  0.00417  0.48325  0.36068  1.0000
  C   C51       1.0  0.99608  0.51669  0.36068  1.0000
  C   C52       1.0  0.99199  0.53354  0.38725  1.0000
  C   C53       1.0  0.99623  0.51606  0.41310  1.0000
  C   C54       1.0  0.00403  0.48382  0.41311  1.0000
  C   C55       1.0  0.00648  0.47370  0.44216  1.0000
  N   N9        1.0  0.00010  0.50000  0.46045  1.0000
  C   C56       1.0  0.99376  0.52624  0.44216  1.0000
  N   N10       1.0  0.98620  0.55748  0.45064  1.0000
  C   C57       1.0  0.98397  0.56668  0.47947  1.0000
  N   N11       1.0  0.98875  0.54694  0.50378  1.0000
  C   C58       1.0  0.98396  0.56672  0.52804  1.0000
  C   C59       1.0  0.97636  0.59811  0.51862  1.0000
  C   C60       1.0  0.97636  0.59812  0.48883  1.0000
  N   N12       1.0  0.00010  0.50022  0.54708  1.0000
  C   C61       1.0  0.99371  0.52648  0.56532  1.0000
  N   N13       1.0  0.98617  0.55760  0.55685  1.0000
  C   C62       1.0  0.99616  0.51634  0.59438  1.0000
  C   C63       1.0  0.00396  0.48413  0.59442  1.0000
  C   C64       1.0  0.00642  0.47397  0.56538  1.0000
  C   C65       1.0  0.96960  0.62604  0.47264  1.0000
  C   C66       1.0  0.96264  0.65478  0.48812  1.0000
  C   C67       1.0  0.96263  0.65480  0.51901  1.0000
  C   C68       1.0  0.96959  0.62608  0.53467  1.0000
  C   C69       1.0  0.00819  0.46668  0.62028  1.0000
  C   C70       1.0  0.00412  0.48348  0.64685  1.0000
  C   C71       1.0  0.99603  0.51688  0.64679  1.0000
  C   C72       1.0  0.99194  0.53376  0.62020  1.0000
  N   N14       1.0  0.01143  0.45326  0.50374  1.0000
  C   C73       1.0  0.01621  0.43355  0.52805  1.0000
  N   N15       1.0  0.01397  0.44279  0.55690  1.0000
  C   C74       1.0  0.02382  0.40210  0.51870  1.0000
  C   C75       1.0  0.02383  0.40207  0.48889  1.0000
  C   C76       1.0  0.01623  0.43346  0.47947  1.0000
  C   C77       1.0  0.03060  0.37409  0.47282  1.0000
  C   C78       1.0  0.03756  0.34535  0.48847  1.0000
  C   C79       1.0  0.03755  0.34540  0.51939  1.0000
  C   C80       1.0  0.03058  0.37419  0.53491  1.0000
  N   N16       1.0  0.01402  0.44256  0.45062  1.0000
  H   H17       1.0  0.01418  0.44190  0.38759  1.0000
  H   H18       1.0  0.98606  0.55804  0.38756  1.0000
  H   H19       1.0  0.96968  0.62568  0.45000  1.0000
  H   H20       1.0  0.96967  0.62575  0.55730  1.0000
  H   H21       1.0  0.01411  0.44221  0.61999  1.0000
  H   H22       1.0  0.98602  0.55823  0.61985  1.0000
  H   H23       1.0  0.03053  0.37440  0.45018  1.0000
  H   H24       1.0  0.03049  0.37457  0.55756  1.0000
  C   C81       1.0  0.04453  0.31658  0.47335  1.0000
  C   C82       1.0  0.05147  0.28791  0.48880  1.0000
  C   C83       1.0  0.05146  0.28796  0.51938  1.0000
  C   C84       1.0  0.04451  0.31667  0.53466  1.0000
  C   C85       1.0  0.00814  0.46685  0.33406  1.0000
  C   C86       1.0  0.00411  0.48349  0.30752  1.0000
  C   C87       1.0  0.99611  0.51654  0.30751  1.0000
  C   C88       1.0  0.99209  0.53313  0.33404  1.0000
  C   C89       1.0  0.95567  0.68354  0.47285  1.0000
  C   C90       1.0  0.94873  0.71222  0.48813  1.0000
  C   C91       1.0  0.94873  0.71222  0.51870  1.0000
  C   C92       1.0  0.95567  0.68355  0.53412  1.0000
  C   C93       1.0  0.00810  0.46702  0.67347  1.0000
  C   C94       1.0  0.00409  0.48357  0.69995  1.0000
  C   C95       1.0  0.99610  0.51659  0.69991  1.0000
  C   C96       1.0  0.99207  0.53323  0.67337  1.0000
  H   H25       1.0  0.04455  0.31649  0.45072  1.0000
  O   O9        1.0  0.05825  0.25991  0.47401  1.0000
  O   O10       1.0  0.05823  0.25999  0.53432  1.0000
  H   H26       1.0  0.04452  0.31663  0.55732  1.0000
  H   H27       1.0  0.01407  0.44237  0.33402  1.0000
  O   O11       1.0  0.00800  0.46744  0.28163  1.0000
  O   O12       1.0  0.99221  0.53266  0.28161  1.0000
  H   H28       1.0  0.98617  0.55761  0.33395  1.0000
  H   H29       1.0  0.95566  0.68361  0.45023  1.0000
  O   O13       1.0  0.94195  0.74021  0.47320  1.0000
  O   O14       1.0  0.94195  0.74020  0.53345  1.0000
  H   H30       1.0  0.95565  0.68362  0.55674  1.0000
  H   H31       1.0  0.01402  0.44259  0.67357  1.0000
  O   O15       1.0  0.00799  0.46750  0.72586  1.0000
  O   O16       1.0  0.99222  0.53262  0.72576  1.0000
  H   H32       1.0  0.98615  0.55770  0.67340  1.0000
  Ni  Ni2       1.0  0.00010  0.50010  0.50376  1.0000
  C   C97       1.0  0.46637  0.00826  0.38727  1.0000
  C   C98       1.0  0.48325  0.00417  0.36068  1.0000
  C   C99       1.0  0.51669  0.99608  0.36068  1.0000
  C   C100      1.0  0.53354  0.99199  0.38725  1.0000
  C   C101      1.0  0.51606  0.99623  0.41310  1.0000
  C   C102      1.0  0.48382  0.00403  0.41311  1.0000
  C   C103      1.0  0.47370  0.00648  0.44216  1.0000
  N   N17       1.0  0.50000  0.00010  0.46045  1.0000
  C   C104      1.0  0.52624  0.99376  0.44216  1.0000
  N   N18       1.0  0.55748  0.98620  0.45064  1.0000
  C   C105      1.0  0.56668  0.98397  0.47947  1.0000
  N   N19       1.0  0.54694  0.98875  0.50378  1.0000
  C   C106      1.0  0.56672  0.98396  0.52804  1.0000
  C   C107      1.0  0.59811  0.97636  0.51861  1.0000
  C   C108      1.0  0.59812  0.97636  0.48883  1.0000
  N   N20       1.0  0.50022  0.00010  0.54708  1.0000
  C   C109      1.0  0.52648  0.99371  0.56532  1.0000
  N   N21       1.0  0.55760  0.98617  0.55685  1.0000
  C   C110      1.0  0.51634  0.99616  0.59438  1.0000
  C   C111      1.0  0.48413  0.00396  0.59442  1.0000
  C   C112      1.0  0.47397  0.00642  0.56537  1.0000
  C   C113      1.0  0.62604  0.96960  0.47264  1.0000
  C   C114      1.0  0.65478  0.96264  0.48812  1.0000
  C   C115      1.0  0.65480  0.96263  0.51901  1.0000
  C   C116      1.0  0.62608  0.96959  0.53467  1.0000
  C   C117      1.0  0.46668  0.00819  0.62028  1.0000
  C   C118      1.0  0.48348  0.00412  0.64685  1.0000
  C   C119      1.0  0.51688  0.99603  0.64679  1.0000
  C   C120      1.0  0.53376  0.99194  0.62020  1.0000
  N   N22       1.0  0.45326  0.01143  0.50374  1.0000
  C   C121      1.0  0.43355  0.01621  0.52805  1.0000
  N   N23       1.0  0.44278  0.01397  0.55690  1.0000
  C   C122      1.0  0.40210  0.02382  0.51870  1.0000
  C   C123      1.0  0.40207  0.02383  0.48889  1.0000
  C   C124      1.0  0.43346  0.01623  0.47947  1.0000
  C   C125      1.0  0.37409  0.03060  0.47282  1.0000
  C   C126      1.0  0.34535  0.03756  0.48847  1.0000
  C   C127      1.0  0.34540  0.03755  0.51939  1.0000
  C   C128      1.0  0.37419  0.03058  0.53491  1.0000
  N   N24       1.0  0.44256  0.01402  0.45062  1.0000
  H   H33       1.0  0.44190  0.01418  0.38759  1.0000
  H   H34       1.0  0.55804  0.98606  0.38756  1.0000
  H   H35       1.0  0.62568  0.96968  0.45000  1.0000
  H   H36       1.0  0.62575  0.96967  0.55730  1.0000
  H   H37       1.0  0.44221  0.01411  0.61999  1.0000
  H   H38       1.0  0.55823  0.98602  0.61985  1.0000
  H   H39       1.0  0.37440  0.03053  0.45018  1.0000
  H   H40       1.0  0.37457  0.03049  0.55756  1.0000
  C   C129      1.0  0.31658  0.04453  0.47335  1.0000
  C   C130      1.0  0.28791  0.05147  0.48880  1.0000
  C   C131      1.0  0.28796  0.05146  0.51937  1.0000
  C   C132      1.0  0.31667  0.04451  0.53466  1.0000
  C   C133      1.0  0.46685  0.00814  0.33406  1.0000
  C   C134      1.0  0.48349  0.00411  0.30752  1.0000
  C   C135      1.0  0.51654  0.99611  0.30751  1.0000
  C   C136      1.0  0.53313  0.99209  0.33404  1.0000
  C   C137      1.0  0.68354  0.95567  0.47285  1.0000
  C   C138      1.0  0.71222  0.94873  0.48813  1.0000
  C   C139      1.0  0.71222  0.94873  0.51870  1.0000
  C   C140      1.0  0.68355  0.95567  0.53412  1.0000
  C   C141      1.0  0.46702  0.00810  0.67347  1.0000
  C   C142      1.0  0.48357  0.00409  0.69995  1.0000
  C   C143      1.0  0.51659  0.99610  0.69991  1.0000
  C   C144      1.0  0.53323  0.99207  0.67337  1.0000
  H   H41       1.0  0.31649  0.04455  0.45072  1.0000
  O   O17       1.0  0.25991  0.05825  0.47401  1.0000
  O   O18       1.0  0.25999  0.05823  0.53432  1.0000
  H   H42       1.0  0.31663  0.04452  0.55732  1.0000
  H   H43       1.0  0.44237  0.01407  0.33402  1.0000
  O   O19       1.0  0.46744  0.00800  0.28163  1.0000
  O   O20       1.0  0.53266  0.99221  0.28161  1.0000
  H   H44       1.0  0.55761  0.98617  0.33395  1.0000
  H   H45       1.0  0.68361  0.95566  0.45022  1.0000
  O   O21       1.0  0.74021  0.94195  0.47320  1.0000
  O   O22       1.0  0.74020  0.94195  0.53345  1.0000
  H   H46       1.0  0.68362  0.95565  0.55674  1.0000
  H   H47       1.0  0.44259  0.01402  0.67356  1.0000
  O   O23       1.0  0.46750  0.00799  0.72586  1.0000
  O   O24       1.0  0.53262  0.99222  0.72576  1.0000
  H   H48       1.0  0.55770  0.98615  0.67340  1.0000
  Ni  Ni3       1.0  0.50010  0.00010  0.50376  1.0000
  C   C145      1.0  0.46952  0.87410  0.97255  1.0000
  C   C146      1.0  0.46256  0.84538  0.98816  1.0000
  C   C147      1.0  0.46258  0.84544  0.01908  1.0000
  C   C148      1.0  0.46954  0.87421  0.03467  1.0000
  C   C149      1.0  0.47630  0.90213  0.01850  1.0000
  C   C150      1.0  0.47629  0.90208  0.98869  1.0000
  C   C151      1.0  0.48389  0.93347  0.97933  1.0000
  N   N25       1.0  0.48869  0.95330  0.00364  1.0000
  C   C152      1.0  0.48392  0.93357  0.02792  1.0000
  N   N26       1.0  0.48615  0.94280  0.05680  1.0000
  C   C153      1.0  0.49370  0.97399  0.06532  1.0000
  N   N27       1.0  0.50006  0.00010  0.04706  1.0000
  C   C154      1.0  0.50642  0.02651  0.06535  1.0000
  C   C155      1.0  0.50397  0.01637  0.09438  1.0000
  C   C156      1.0  0.49617  0.98417  0.09439  1.0000
  N   N28       1.0  0.51137  0.04697  0.00385  1.0000
  C   C157      1.0  0.51616  0.06674  0.02813  1.0000
  N   N29       1.0  0.51396  0.05764  0.05692  1.0000
  C   C158      1.0  0.52376  0.09815  0.01876  1.0000
  C   C159      1.0  0.52376  0.09812  0.98898  1.0000
  C   C160      1.0  0.51615  0.06670  0.97958  1.0000
  C   C161      1.0  0.49194  0.96671  0.12021  1.0000
  C   C162      1.0  0.49601  0.98351  0.14679  1.0000
  C   C163      1.0  0.50409  0.01691  0.14681  1.0000
  C   C164      1.0  0.50818  0.03379  0.12025  1.0000
  C   C165      1.0  0.53052  0.12605  0.97283  1.0000
  C   C166      1.0  0.53748  0.15481  0.98837  1.0000
  C   C167      1.0  0.53749  0.15482  0.01926  1.0000
  C   C168      1.0  0.53053  0.12610  0.03487  1.0000
  N   N30       1.0  0.50001  0.00010  0.96042  1.0000
  C   C169      1.0  0.50636  0.02626  0.94219  1.0000
  N   N31       1.0  0.51392  0.05748  0.95074  1.0000
  C   C170      1.0  0.50390  0.01610  0.91311  1.0000
  C   C171      1.0  0.49609  0.98387  0.91308  1.0000
  C   C172      1.0  0.49364  0.97373  0.94211  1.0000
  C   C173      1.0  0.49187  0.96644  0.88720  1.0000
  C   C174      1.0  0.49596  0.98331  0.86063  1.0000
  C   C175      1.0  0.50405  0.01673  0.86068  1.0000
  C   C176      1.0  0.50813  0.03357  0.88730  1.0000
  N   N32       1.0  0.48609  0.94256  0.95053  1.0000
  H   H49       1.0  0.46959  0.87441  0.94992  1.0000
  H   H50       1.0  0.46964  0.87460  0.05732  1.0000
  H   H51       1.0  0.48601  0.94223  0.11988  1.0000
  H   H52       1.0  0.51411  0.05826  0.11995  1.0000
  H   H53       1.0  0.53044  0.12570  0.95021  1.0000
  H   H54       1.0  0.53045  0.12576  0.05750  1.0000
  H   H55       1.0  0.48595  0.94195  0.88749  1.0000
  H   H56       1.0  0.51406  0.05806  0.88765  1.0000
  C   C177      1.0  0.49199  0.96690  0.83402  1.0000
  C   C178      1.0  0.49602  0.98355  0.80751  1.0000
  C   C179      1.0  0.50402  0.01661  0.80755  1.0000
  C   C180      1.0  0.50804  0.03319  0.83411  1.0000
  C   C181      1.0  0.45559  0.81657  0.97299  1.0000
  C   C182      1.0  0.44865  0.78790  0.98838  1.0000
  C   C183      1.0  0.44866  0.78795  0.01894  1.0000
  C   C184      1.0  0.45561  0.81667  0.03428  1.0000
  C   C185      1.0  0.49202  0.96705  0.17339  1.0000
  C   C186      1.0  0.49604  0.98363  0.19991  1.0000
  C   C187      1.0  0.50404  0.01668  0.19991  1.0000
  C   C188      1.0  0.50806  0.03330  0.17340  1.0000
  C   C189      1.0  0.54445  0.18357  0.97315  1.0000
  C   C190      1.0  0.55139  0.21223  0.98846  1.0000
  C   C191      1.0  0.55139  0.21226  0.01900  1.0000
  C   C192      1.0  0.54445  0.18359  0.03438  1.0000
  H   H57       1.0  0.48606  0.94243  0.83394  1.0000
  O   O25       1.0  0.49213  0.96750  0.78161  1.0000
  O   O26       1.0  0.50792  0.03272  0.78169  1.0000
  H   H58       1.0  0.51397  0.05770  0.83406  1.0000
  H   H59       1.0  0.45556  0.81648  0.95035  1.0000
  O   O27       1.0  0.44186  0.75988  0.97354  1.0000
  O   O28       1.0  0.44189  0.75998  0.03385  1.0000
  H   H60       1.0  0.45560  0.81663  0.05693  1.0000
  H   H61       1.0  0.48610  0.94259  0.17345  1.0000
  O   O29       1.0  0.49214  0.96753  0.22579  1.0000
  O   O30       1.0  0.50791  0.03268  0.22579  1.0000
  H   H62       1.0  0.51399  0.05776  0.17347  1.0000
  H   H63       1.0  0.54446  0.18363  0.95055  1.0000
  O   O31       1.0  0.55816  0.24022  0.97359  1.0000
  O   O32       1.0  0.55817  0.24023  0.03382  1.0000
  H   H64       1.0  0.54447  0.18367  0.05701  1.0000
  Ni  Ni4       1.0  0.50003  0.00010  0.00374  1.0000
  C   C193      1.0  0.41063  0.56751  0.00368  1.0000
  C   C194      1.0  0.43259  0.58948  0.00368  1.0000
  C   C195      1.0  0.42455  0.61948  0.00368  1.0000
  C   C196      1.0  0.39454  0.62752  0.00368  1.0000
  C   C197      1.0  0.37258  0.60555  0.00368  1.0000
  C   C198      1.0  0.38062  0.57555  0.00368  1.0000
  C   C199      1.0  0.38650  0.65752  0.00368  1.0000
  C   C200      1.0  0.40846  0.67948  0.00368  1.0000
  C   C201      1.0  0.43847  0.67145  0.00368  1.0000
  C   C202      1.0  0.44651  0.64144  0.00368  1.0000
  C   C203      1.0  0.41867  0.53751  0.00367  1.0000
  C   C204      1.0  0.44867  0.52947  0.00367  1.0000
  C   C205      1.0  0.47064  0.55143  0.00367  1.0000
  C   C206      1.0  0.46259  0.58144  0.00367  1.0000
  C   C207      1.0  0.35866  0.55359  0.00368  1.0000
  C   C208      1.0  0.32866  0.56162  0.00368  1.0000
  C   C209      1.0  0.32062  0.59163  0.00368  1.0000
  C   C210      1.0  0.34258  0.61359  0.00368  1.0000
  H   H65       1.0  0.36400  0.66355  0.00368  1.0000
  O   O33       1.0  0.40123  0.70649  0.00368  1.0000
  O   O34       1.0  0.45823  0.69121  0.00368  1.0000
  H   H66       1.0  0.46901  0.63541  0.00368  1.0000
  H   H67       1.0  0.40220  0.52104  0.00367  1.0000
  O   O35       1.0  0.45591  0.50247  0.00367  1.0000
  O   O36       1.0  0.49764  0.54420  0.00367  1.0000
  H   H68       1.0  0.47907  0.59791  0.00367  1.0000
  H   H69       1.0  0.36469  0.53108  0.00368  1.0000
  O   O37       1.0  0.30889  0.54186  0.00368  1.0000
  O   O38       1.0  0.29361  0.59886  0.00368  1.0000
  H   H70       1.0  0.33655  0.63609  0.00368  1.0000
  C   C211      1.0  0.91064  0.93260  0.50310  1.0000
  C   C212      1.0  0.93260  0.91064  0.50310  1.0000
  C   C213      1.0  0.92457  0.88064  0.50306  1.0000
  C   C214      1.0  0.89456  0.87260  0.50302  1.0000
  C   C215      1.0  0.87260  0.89456  0.50302  1.0000
  C   C216      1.0  0.88064  0.92457  0.50306  1.0000
  C   C217      1.0  0.88652  0.84260  0.50298  1.0000
  C   C218      1.0  0.90849  0.82063  0.50298  1.0000
  C   C219      1.0  0.93849  0.82867  0.50302  1.0000
  C   C220      1.0  0.94653  0.85867  0.50306  1.0000
  C   C221      1.0  0.91868  0.96261  0.50313  1.0000
  C   C222      1.0  0.94868  0.97065  0.50317  1.0000
  C   C223      1.0  0.97065  0.94868  0.50317  1.0000
  C   C224      1.0  0.96261  0.91868  0.50313  1.0000
  C   C225      1.0  0.85867  0.94653  0.50306  1.0000
  C   C226      1.0  0.82867  0.93849  0.50302  1.0000
  C   C227      1.0  0.82063  0.90849  0.50298  1.0000
  C   C228      1.0  0.84260  0.88652  0.50298  1.0000
  H   H71       1.0  0.86402  0.83657  0.50295  1.0000
  O   O39       1.0  0.90125  0.79363  0.50294  1.0000
  O   O40       1.0  0.95826  0.80890  0.50302  1.0000
  H   H72       1.0  0.96903  0.86470  0.50309  1.0000
  H   H73       1.0  0.90221  0.97908  0.50313  1.0000
  O   O41       1.0  0.95592  0.99765  0.50321  1.0000
  O   O42       1.0  0.99765  0.95592  0.50321  1.0000
  H   H74       1.0  0.97908  0.90221  0.50313  1.0000
  H   H75       1.0  0.86470  0.96903  0.50309  1.0000
  O   O43       1.0  0.80890  0.95826  0.50302  1.0000
  O   O44       1.0  0.79363  0.90125  0.50294  1.0000
  H   H76       1.0  0.83657  0.86402  0.50295  1.0000
  C   C229      1.0  0.56751  0.41063  0.00368  1.0000
  C   C230      1.0  0.58948  0.43259  0.00368  1.0000
  C   C231      1.0  0.61948  0.42455  0.00368  1.0000
  C   C232      1.0  0.62752  0.39454  0.00368  1.0000
  C   C233      1.0  0.60555  0.37258  0.00368  1.0000
  C   C234      1.0  0.57555  0.38062  0.00368  1.0000
  C   C235      1.0  0.65752  0.38650  0.00368  1.0000
  C   C236      1.0  0.67948  0.40846  0.00368  1.0000
  C   C237      1.0  0.67145  0.43847  0.00368  1.0000
  C   C238      1.0  0.64144  0.44651  0.00368  1.0000
  C   C239      1.0  0.53751  0.41867  0.00367  1.0000
  C   C240      1.0  0.52947  0.44867  0.00367  1.0000
  C   C241      1.0  0.55143  0.47064  0.00367  1.0000
  C   C242      1.0  0.58144  0.46259  0.00367  1.0000
  C   C243      1.0  0.55359  0.35866  0.00368  1.0000
  C   C244      1.0  0.56162  0.32866  0.00368  1.0000
  C   C245      1.0  0.59163  0.32062  0.00368  1.0000
  C   C246      1.0  0.61359  0.34258  0.00368  1.0000
  H   H77       1.0  0.66355  0.36400  0.00368  1.0000
  O   O45       1.0  0.70649  0.40123  0.00368  1.0000
  O   O46       1.0  0.69121  0.45823  0.00368  1.0000
  H   H78       1.0  0.63541  0.46901  0.00368  1.0000
  H   H79       1.0  0.52104  0.40220  0.00367  1.0000
  O   O47       1.0  0.50247  0.45591  0.00367  1.0000
  O   O48       1.0  0.54420  0.49764  0.00367  1.0000
  H   H80       1.0  0.59791  0.47907  0.00367  1.0000
  H   H81       1.0  0.53108  0.36469  0.00368  1.0000
  O   O49       1.0  0.54186  0.30889  0.00368  1.0000
  O   O50       1.0  0.59886  0.29361  0.00368  1.0000
  H   H82       1.0  0.63609  0.33655  0.00368  1.0000
  C   C247      1.0  0.06754  0.08950  0.50442  1.0000
  C   C248      1.0  0.08950  0.06754  0.50442  1.0000
  C   C249      1.0  0.11950  0.07558  0.50445  1.0000
  C   C250      1.0  0.12754  0.10558  0.50449  1.0000
  C   C251      1.0  0.10558  0.12754  0.50449  1.0000
  C   C252      1.0  0.07558  0.11950  0.50445  1.0000
  C   C253      1.0  0.15755  0.11362  0.50453  1.0000
  C   C254      1.0  0.17951  0.09165  0.50453  1.0000
  C   C255      1.0  0.17147  0.06165  0.50449  1.0000
  C   C256      1.0  0.14147  0.05361  0.50445  1.0000
  C   C257      1.0  0.03753  0.08146  0.50438  1.0000
  C   C258      1.0  0.02950  0.05146  0.50434  1.0000
  C   C259      1.0  0.05146  0.02950  0.50434  1.0000
  C   C260      1.0  0.08146  0.03753  0.50438  1.0000
  C   C261      1.0  0.05361  0.14147  0.50445  1.0000
  C   C262      1.0  0.06165  0.17147  0.50449  1.0000
  C   C263      1.0  0.09165  0.17951  0.50453  1.0000
  C   C264      1.0  0.11362  0.15755  0.50453  1.0000
  H   H83       1.0  0.16357  0.13612  0.50456  1.0000
  O   O51       1.0  0.20651  0.09889  0.50456  1.0000
  O   O52       1.0  0.19124  0.04188  0.50449  1.0000
  H   H84       1.0  0.13544  0.03111  0.50443  1.0000
  H   H85       1.0  0.02106  0.09794  0.50438  1.0000
  O   O53       1.0  0.00249  0.04422  0.50431  1.0000
  O   O54       1.0  0.04422  0.00249  0.50431  1.0000
  H   H86       1.0  0.09794  0.02106  0.50438  1.0000
  H   H87       1.0  0.03111  0.13544  0.50443  1.0000
  O   O55       1.0  0.04188  0.19124  0.50449  1.0000
  O   O56       1.0  0.09889  0.20651  0.50456  1.0000
  H   H88       1.0  0.13612  0.16357  0.50456  1.0000
  Cu  Cu1       1.0  0.50005  0.50005  0.00367  1.0000
  Cu  Cu2       1.0  0.00010  0.00010  0.50376  1.0000
  Zn  Zn1       1.0  0.27075  0.56426  0.00369  1.0000
  Zn  Zn2       1.0  0.93586  0.77073  0.50316  1.0000
  Zn  Zn3       1.0  0.72938  0.43580  0.00369  1.0000
  Zn  Zn4       1.0  0.06432  0.22941  0.50435  1.0000
  Zn  Zn5       1.0  0.77073  0.93586  0.50316  1.0000
  Zn  Zn6       1.0  0.56426  0.27075  0.00369  1.0000
  Zn  Zn7       1.0  0.22941  0.06431  0.50435  1.0000
  Zn  Zn8       1.0  0.43580  0.72938  0.00369  1.0000
  Zn  Zn9       1.0  0.00010  0.50004  0.25371  1.0000
  Zn  Zn10      1.0  0.00010  0.50004  0.75373  1.0000
  Zn  Zn11      1.0  0.50004  0.00010  0.25371  1.0000
  Zn  Zn12      1.0  0.50004  0.00010  0.75373  1.0000
