data_image0
_chemical_formula_structural       C7NCNCNC3NCNC11NCNC7NH8C16HO2H2O2H2O2H2O2HNiC7NCNCNC3NCNC11NCNC7NH8C16HO2H2O2H2O2H2O2HNiC7NCNCNC3NCNC11NCNC7NH8C16HO2H2O2H2O2H2O2HNiC7NCNCNC3NCNC11NCNC7NH8C16HO2H2O2H2O2H2O2HNiC6O6C6O6C6O6C6O6Cu2Zn12
_chemical_formula_sum              "C216 N32 H64 O56 Ni4 Cu2 Zn12"
_cell_length_a       37.7839
_cell_length_b       37.7839
_cell_length_c       50.1447
_cell_angle_alpha    90.2414
_cell_angle_beta     90.2414
_cell_angle_gamma    89.9982

_space_group_name_H-M_alt    "P 1"
_space_group_IT_number       1

loop_
  _space_group_symop_operation_xyz
  'x, y, z'

loop_
  _atom_site_type_symbol
  _atom_site_label
  _atom_site_symmetry_multiplicity
  _atom_site_fract_x
  _atom_site_fract_y
  _atom_site_fract_z
  _atom_site_occupancy
  C   C1        1.0  0.84795  0.47231  0.96974  1.0000
  C   C2        1.0  0.81327  0.46601  0.98534  1.0000
  C   C3        1.0  0.81334  0.46602  0.01627  1.0000
  C   C4        1.0  0.84808  0.47234  0.03186  1.0000
  C   C5        1.0  0.88180  0.47846  0.01569  1.0000
  C   C6        1.0  0.88173  0.47845  0.98588  1.0000
  C   C7        1.0  0.91964  0.48534  0.97652  1.0000
  N   N1        1.0  0.94358  0.48970  0.00010  1.0000
  C   C8        1.0  0.91976  0.48536  0.02511  1.0000
  N   N2        1.0  0.93091  0.48739  0.05399  1.0000
  C   C9        1.0  0.96857  0.49424  0.06251  1.0000
  N   N3        1.0  0.00010  0.50000  0.04425  1.0000
  C   C10       1.0  0.03199  0.50577  0.06254  1.0000
  C   C11       1.0  0.01976  0.50354  0.09157  1.0000
  C   C12       1.0  0.98086  0.49647  0.09158  1.0000
  N   N4        1.0  0.05670  0.51026  0.00104  1.0000
  C   C13       1.0  0.08057  0.51460  0.02533  1.0000
  N   N5        1.0  0.06958  0.51260  0.05411  1.0000
  C   C14       1.0  0.11850  0.52150  0.01596  1.0000
  C   C15       1.0  0.11847  0.52149  0.98617  1.0000
  C   C16       1.0  0.08053  0.51459  0.97677  1.0000
  C   C17       1.0  0.95979  0.49264  0.11741  1.0000
  C   C18       1.0  0.98006  0.49633  0.14398  1.0000
  C   C19       1.0  0.02040  0.50366  0.14400  1.0000
  C   C20       1.0  0.04079  0.50737  0.11744  1.0000
  C   C21       1.0  0.15220  0.52762  0.97002  1.0000
  C   C22       1.0  0.18693  0.53393  0.98557  1.0000
  C   C23       1.0  0.18693  0.53394  0.01646  1.0000
  C   C24       1.0  0.15225  0.52763  0.03206  1.0000
  N   N6        1.0  0.00010  0.49995  0.95761  1.0000
  C   C25       1.0  0.03169  0.50571  0.93939  1.0000
  N   N7        1.0  0.06939  0.51257  0.94793  1.0000
  C   C26       1.0  0.01942  0.50348  0.91030  1.0000
  C   C27       1.0  0.98049  0.49641  0.91028  1.0000
  C   C28       1.0  0.96826  0.49418  0.93931  1.0000
  C   C29       1.0  0.95945  0.49258  0.88439  1.0000
  C   C30       1.0  0.97982  0.49628  0.85782  1.0000
  C   C31       1.0  0.02018  0.50362  0.85787  1.0000
  C   C32       1.0  0.04051  0.50732  0.88449  1.0000
  N   N8        1.0  0.93061  0.48734  0.94772  1.0000
  H   H1        1.0  0.84831  0.47238  0.94711  1.0000
  H   H2        1.0  0.84855  0.47242  0.05451  1.0000
  H   H3        1.0  0.93023  0.48727  0.11707  1.0000
  H   H4        1.0  0.07033  0.51274  0.11714  1.0000
  H   H5        1.0  0.15177  0.52754  0.94740  1.0000
  H   H6        1.0  0.15185  0.52756  0.05469  1.0000
  H   H7        1.0  0.92988  0.48721  0.88468  1.0000
  H   H8        1.0  0.07009  0.51269  0.88484  1.0000
  C   C33       1.0  0.96001  0.49268  0.83121  1.0000
  C   C34       1.0  0.98011  0.49634  0.80470  1.0000
  C   C35       1.0  0.02003  0.50359  0.80475  1.0000
  C   C36       1.0  0.04006  0.50723  0.83130  1.0000
  C   C37       1.0  0.77847  0.45968  0.97018  1.0000
  C   C38       1.0  0.74386  0.45339  0.98556  1.0000
  C   C39       1.0  0.74392  0.45340  0.01613  1.0000
  C   C40       1.0  0.77860  0.45970  0.03147  1.0000
  C   C41       1.0  0.96019  0.49272  0.17058  1.0000
  C   C42       1.0  0.98021  0.49636  0.19710  1.0000
  C   C43       1.0  0.02012  0.50361  0.19710  1.0000
  C   C44       1.0  0.04019  0.50726  0.17059  1.0000
  C   C45       1.0  0.22165  0.54025  0.97035  1.0000
  C   C46       1.0  0.25626  0.54654  0.98565  1.0000
  C   C47       1.0  0.25629  0.54655  0.01619  1.0000
  C   C48       1.0  0.22168  0.54025  0.03158  1.0000
  H   H9        1.0  0.93045  0.48731  0.83113  1.0000
  O   O1        1.0  0.96073  0.49281  0.77880  1.0000
  O   O2        1.0  0.03949  0.50713  0.77888  1.0000
  H   H10       1.0  0.06965  0.51261  0.83126  1.0000
  H   H11       1.0  0.77836  0.45966  0.94754  1.0000
  O   O3        1.0  0.71002  0.44724  0.97073  1.0000
  O   O4        1.0  0.71014  0.44726  0.03104  1.0000
  H   H12       1.0  0.77854  0.45969  0.05412  1.0000
  H   H13       1.0  0.93065  0.48735  0.17064  1.0000
  O   O5        1.0  0.96078  0.49282  0.22298  1.0000
  O   O6        1.0  0.03945  0.50712  0.22298  1.0000
  H   H14       1.0  0.06973  0.51263  0.17066  1.0000
  H   H15       1.0  0.22172  0.54026  0.94775  1.0000
  O   O7        1.0  0.29006  0.55268  0.97079  1.0000
  O   O8        1.0  0.29008  0.55269  0.03101  1.0000
  H   H16       1.0  0.22177  0.54027  0.05420  1.0000
  Ni  Ni1       1.0  0.00010  0.49998  0.00010  1.0000
  C   C49       1.0  0.00750  0.45934  0.38445  1.0000
  C   C50       1.0  0.00379  0.47972  0.35786  1.0000
  C   C51       1.0  0.99645  0.52010  0.35788  1.0000
  C   C52       1.0  0.99275  0.54045  0.38446  1.0000
  C   C53       1.0  0.99659  0.51934  0.41030  1.0000
  C   C54       1.0  0.00367  0.48041  0.41030  1.0000
  C   C55       1.0  0.00589  0.46819  0.43935  1.0000
  N   N9        1.0  0.00010  0.49994  0.45764  1.0000
  C   C56       1.0  0.99435  0.53163  0.43936  1.0000
  N   N10       1.0  0.98749  0.56935  0.44786  1.0000
  C   C57       1.0  0.98547  0.58046  0.47669  1.0000
  N   N11       1.0  0.98981  0.55663  0.50099  1.0000
  C   C58       1.0  0.98546  0.58051  0.52526  1.0000
  C   C59       1.0  0.97857  0.61842  0.51585  1.0000
  C   C60       1.0  0.97857  0.61842  0.48606  1.0000
  N   N12       1.0  0.00010  0.50021  0.54427  1.0000
  C   C61       1.0  0.99430  0.53191  0.56252  1.0000
  N   N13       1.0  0.98747  0.56950  0.55406  1.0000
  C   C62       1.0  0.99653  0.51968  0.59158  1.0000
  C   C63       1.0  0.00360  0.48078  0.59160  1.0000
  C   C64       1.0  0.00583  0.46851  0.56256  1.0000
  C   C65       1.0  0.97244  0.65215  0.46988  1.0000
  C   C66       1.0  0.96613  0.68684  0.48537  1.0000
  C   C67       1.0  0.96612  0.68687  0.51626  1.0000
  C   C68       1.0  0.97243  0.65219  0.53192  1.0000
  C   C69       1.0  0.00743  0.45970  0.61746  1.0000
  C   C70       1.0  0.00374  0.47999  0.64403  1.0000
  C   C71       1.0  0.99641  0.52033  0.64399  1.0000
  C   C72       1.0  0.99270  0.54071  0.61741  1.0000
  N   N14       1.0  0.01038  0.44350  0.50092  1.0000
  C   C73       1.0  0.01471  0.41970  0.52521  1.0000
  N   N15       1.0  0.01268  0.43085  0.55407  1.0000
  C   C74       1.0  0.02161  0.38172  0.51586  1.0000
  C   C75       1.0  0.02162  0.38169  0.48604  1.0000
  C   C76       1.0  0.01472  0.41960  0.47663  1.0000
  C   C77       1.0  0.02776  0.34790  0.46996  1.0000
  C   C78       1.0  0.03407  0.31320  0.48560  1.0000
  C   C79       1.0  0.03406  0.31326  0.51652  1.0000
  C   C80       1.0  0.02774  0.34802  0.53205  1.0000
  N   N16       1.0  0.01273  0.43058  0.44779  1.0000
  H   H17       1.0  0.01287  0.42979  0.38476  1.0000
  H   H18       1.0  0.98737  0.57003  0.38478  1.0000
  H   H19       1.0  0.97252  0.65171  0.44724  1.0000
  H   H20       1.0  0.97250  0.65179  0.55455  1.0000
  H   H21       1.0  0.01280  0.43016  0.61716  1.0000
  H   H22       1.0  0.98733  0.57026  0.61707  1.0000
  H   H23       1.0  0.02769  0.34827  0.44732  1.0000
  H   H24       1.0  0.02766  0.34848  0.55470  1.0000
  C   C81       1.0  0.04039  0.27845  0.47047  1.0000
  C   C82       1.0  0.04668  0.24384  0.48591  1.0000
  C   C83       1.0  0.04667  0.24390  0.51648  1.0000
  C   C84       1.0  0.04037  0.27857  0.53178  1.0000
  C   C85       1.0  0.00739  0.45992  0.33124  1.0000
  C   C86       1.0  0.00374  0.48001  0.30470  1.0000
  C   C87       1.0  0.99648  0.51992  0.30471  1.0000
  C   C88       1.0  0.99284  0.53995  0.33125  1.0000
  C   C89       1.0  0.95981  0.72157  0.47011  1.0000
  C   C90       1.0  0.95352  0.75621  0.48541  1.0000
  C   C91       1.0  0.95352  0.75621  0.51598  1.0000
  C   C92       1.0  0.95981  0.72159  0.53138  1.0000
  C   C93       1.0  0.00736  0.46012  0.67065  1.0000
  C   C94       1.0  0.00372  0.48010  0.69713  1.0000
  C   C95       1.0  0.99647  0.51998  0.69711  1.0000
  C   C96       1.0  0.99282  0.54007  0.67058  1.0000
  H   H25       1.0  0.04041  0.27835  0.44784  1.0000
  O   O9        1.0  0.05283  0.21003  0.47110  1.0000
  O   O10       1.0  0.05281  0.21012  0.53142  1.0000
  H   H26       1.0  0.04038  0.27851  0.55444  1.0000
  H   H27       1.0  0.01277  0.43035  0.33119  1.0000
  O   O11       1.0  0.00726  0.46063  0.27881  1.0000
  O   O12       1.0  0.99294  0.53939  0.27882  1.0000
  H   H28       1.0  0.98746  0.56952  0.33117  1.0000
  H   H29       1.0  0.95980  0.72166  0.44749  1.0000
  O   O13       1.0  0.94737  0.79000  0.47049  1.0000
  O   O14       1.0  0.94737  0.79000  0.53074  1.0000
  H   H30       1.0  0.95980  0.72168  0.55401  1.0000
  H   H31       1.0  0.01272  0.43061  0.67073  1.0000
  O   O15       1.0  0.00725  0.46069  0.72304  1.0000
  O   O16       1.0  0.99295  0.53933  0.72296  1.0000
  H   H32       1.0  0.98745  0.56961  0.67062  1.0000
  Ni  Ni2       1.0  0.00010  0.50007  0.50095  1.0000
  C   C97       1.0  0.45934  0.00750  0.38444  1.0000
  C   C98       1.0  0.47972  0.00379  0.35786  1.0000
  C   C99       1.0  0.52010  0.99645  0.35787  1.0000
  C   C100      1.0  0.54045  0.99275  0.38446  1.0000
  C   C101      1.0  0.51934  0.99659  0.41030  1.0000
  C   C102      1.0  0.48041  0.00367  0.41030  1.0000
  C   C103      1.0  0.46819  0.00589  0.43934  1.0000
  N   N17       1.0  0.49994  0.00010  0.45764  1.0000
  C   C104      1.0  0.53163  0.99435  0.43936  1.0000
  N   N18       1.0  0.56935  0.98749  0.44786  1.0000
  C   C105      1.0  0.58046  0.98547  0.47669  1.0000
  N   N19       1.0  0.55663  0.98981  0.50099  1.0000
  C   C106      1.0  0.58051  0.98546  0.52526  1.0000
  C   C107      1.0  0.61841  0.97857  0.51585  1.0000
  C   C108      1.0  0.61842  0.97857  0.48606  1.0000
  N   N20       1.0  0.50021  0.00010  0.54427  1.0000
  C   C109      1.0  0.53191  0.99430  0.56252  1.0000
  N   N21       1.0  0.56950  0.98747  0.55406  1.0000
  C   C110      1.0  0.51968  0.99653  0.59158  1.0000
  C   C111      1.0  0.48078  0.00360  0.59160  1.0000
  C   C112      1.0  0.46851  0.00583  0.56255  1.0000
  C   C113      1.0  0.65215  0.97244  0.46988  1.0000
  C   C114      1.0  0.68684  0.96613  0.48537  1.0000
  C   C115      1.0  0.68687  0.96612  0.51626  1.0000
  C   C116      1.0  0.65219  0.97243  0.53191  1.0000
  C   C117      1.0  0.45970  0.00743  0.61745  1.0000
  C   C118      1.0  0.47999  0.00374  0.64403  1.0000
  C   C119      1.0  0.52033  0.99641  0.64399  1.0000
  C   C120      1.0  0.54071  0.99270  0.61741  1.0000
  N   N22       1.0  0.44350  0.01038  0.50091  1.0000
  C   C121      1.0  0.41970  0.01471  0.52521  1.0000
  N   N23       1.0  0.43085  0.01268  0.55407  1.0000
  C   C122      1.0  0.38172  0.02161  0.51585  1.0000
  C   C123      1.0  0.38169  0.02162  0.48604  1.0000
  C   C124      1.0  0.41960  0.01472  0.47663  1.0000
  C   C125      1.0  0.34790  0.02776  0.46996  1.0000
  C   C126      1.0  0.31320  0.03407  0.48560  1.0000
  C   C127      1.0  0.31326  0.03406  0.51652  1.0000
  C   C128      1.0  0.34802  0.02774  0.53204  1.0000
  N   N24       1.0  0.43058  0.01273  0.44778  1.0000
  H   H33       1.0  0.42979  0.01287  0.38476  1.0000
  H   H34       1.0  0.57003  0.98737  0.38478  1.0000
  H   H35       1.0  0.65171  0.97252  0.44724  1.0000
  H   H36       1.0  0.65179  0.97250  0.55454  1.0000
  H   H37       1.0  0.43016  0.01280  0.61716  1.0000
  H   H38       1.0  0.57025  0.98733  0.61706  1.0000
  H   H39       1.0  0.34827  0.02769  0.44732  1.0000
  H   H40       1.0  0.34848  0.02766  0.55470  1.0000
  C   C129      1.0  0.27845  0.04039  0.47047  1.0000
  C   C130      1.0  0.24384  0.04668  0.48590  1.0000
  C   C131      1.0  0.24390  0.04667  0.51648  1.0000
  C   C132      1.0  0.27857  0.04037  0.53177  1.0000
  C   C133      1.0  0.45992  0.00739  0.33124  1.0000
  C   C134      1.0  0.48001  0.00374  0.30470  1.0000
  C   C135      1.0  0.51992  0.99648  0.30471  1.0000
  C   C136      1.0  0.53995  0.99284  0.33124  1.0000
  C   C137      1.0  0.72157  0.95981  0.47011  1.0000
  C   C138      1.0  0.75621  0.95352  0.48541  1.0000
  C   C139      1.0  0.75621  0.95352  0.51597  1.0000
  C   C140      1.0  0.72159  0.95981  0.53138  1.0000
  C   C141      1.0  0.46012  0.00736  0.67065  1.0000
  C   C142      1.0  0.48010  0.00372  0.69713  1.0000
  C   C143      1.0  0.51998  0.99647  0.69711  1.0000
  C   C144      1.0  0.54007  0.99282  0.67058  1.0000
  H   H41       1.0  0.27835  0.04041  0.44783  1.0000
  O   O17       1.0  0.21003  0.05283  0.47110  1.0000
  O   O18       1.0  0.21012  0.05281  0.53141  1.0000
  H   H42       1.0  0.27851  0.04038  0.55444  1.0000
  H   H43       1.0  0.43035  0.01277  0.33118  1.0000
  O   O19       1.0  0.46063  0.00726  0.27881  1.0000
  O   O20       1.0  0.53939  0.99294  0.27881  1.0000
  H   H44       1.0  0.56952  0.98746  0.33117  1.0000
  H   H45       1.0  0.72166  0.95980  0.44749  1.0000
  O   O21       1.0  0.79000  0.94737  0.47049  1.0000
  O   O22       1.0  0.79000  0.94737  0.53074  1.0000
  H   H46       1.0  0.72168  0.95980  0.55400  1.0000
  H   H47       1.0  0.43061  0.01272  0.67073  1.0000
  O   O23       1.0  0.46069  0.00725  0.72303  1.0000
  O   O24       1.0  0.53933  0.99295  0.72296  1.0000
  H   H48       1.0  0.56961  0.98745  0.67062  1.0000
  Ni  Ni3       1.0  0.50007  0.00010  0.50095  1.0000
  C   C145      1.0  0.47231  0.84795  0.96974  1.0000
  C   C146      1.0  0.46601  0.81327  0.98534  1.0000
  C   C147      1.0  0.46602  0.81334  0.01627  1.0000
  C   C148      1.0  0.47234  0.84808  0.03185  1.0000
  C   C149      1.0  0.47846  0.88180  0.01569  1.0000
  C   C150      1.0  0.47845  0.88173  0.98587  1.0000
  C   C151      1.0  0.48534  0.91964  0.97652  1.0000
  N   N25       1.0  0.48970  0.94358  0.00010  1.0000
  C   C152      1.0  0.48536  0.91976  0.02511  1.0000
  N   N26       1.0  0.48739  0.93091  0.05399  1.0000
  C   C153      1.0  0.49424  0.96857  0.06250  1.0000
  N   N27       1.0  0.50000  0.00010  0.04425  1.0000
  C   C154      1.0  0.50577  0.03199  0.06254  1.0000
  C   C155      1.0  0.50354  0.01976  0.09157  1.0000
  C   C156      1.0  0.49647  0.98086  0.09158  1.0000
  N   N28       1.0  0.51026  0.05670  0.00104  1.0000
  C   C157      1.0  0.51460  0.08057  0.02532  1.0000
  N   N29       1.0  0.51260  0.06958  0.05411  1.0000
  C   C158      1.0  0.52150  0.11850  0.01596  1.0000
  C   C159      1.0  0.52149  0.11847  0.98617  1.0000
  C   C160      1.0  0.51459  0.08053  0.97677  1.0000
  C   C161      1.0  0.49264  0.95979  0.11740  1.0000
  C   C162      1.0  0.49633  0.98006  0.14398  1.0000
  C   C163      1.0  0.50366  0.02040  0.14400  1.0000
  C   C164      1.0  0.50737  0.04079  0.11744  1.0000
  C   C165      1.0  0.52762  0.15220  0.97002  1.0000
  C   C166      1.0  0.53394  0.18693  0.98556  1.0000
  C   C167      1.0  0.53394  0.18693  0.01646  1.0000
  C   C168      1.0  0.52763  0.15225  0.03206  1.0000
  N   N30       1.0  0.49995  0.00010  0.95761  1.0000
  C   C169      1.0  0.50571  0.03169  0.93938  1.0000
  N   N31       1.0  0.51257  0.06939  0.94793  1.0000
  C   C170      1.0  0.50348  0.01942  0.91030  1.0000
  C   C171      1.0  0.49641  0.98049  0.91027  1.0000
  C   C172      1.0  0.49418  0.96826  0.93930  1.0000
  C   C173      1.0  0.49258  0.95945  0.88439  1.0000
  C   C174      1.0  0.49628  0.97982  0.85782  1.0000
  C   C175      1.0  0.50362  0.02018  0.85787  1.0000
  C   C176      1.0  0.50732  0.04051  0.88449  1.0000
  N   N32       1.0  0.48734  0.93061  0.94772  1.0000
  H   H49       1.0  0.47238  0.84831  0.94710  1.0000
  H   H50       1.0  0.47242  0.84855  0.05451  1.0000
  H   H51       1.0  0.48727  0.93023  0.11707  1.0000
  H   H52       1.0  0.51274  0.07033  0.11714  1.0000
  H   H53       1.0  0.52754  0.15177  0.94740  1.0000
  H   H54       1.0  0.52756  0.15185  0.05469  1.0000
  H   H55       1.0  0.48721  0.92988  0.88468  1.0000
  H   H56       1.0  0.51269  0.07009  0.88484  1.0000
  C   C177      1.0  0.49268  0.96001  0.83121  1.0000
  C   C178      1.0  0.49634  0.98011  0.80470  1.0000
  C   C179      1.0  0.50359  0.02003  0.80474  1.0000
  C   C180      1.0  0.50723  0.04006  0.83130  1.0000
  C   C181      1.0  0.45968  0.77847  0.97018  1.0000
  C   C182      1.0  0.45339  0.74386  0.98556  1.0000
  C   C183      1.0  0.45340  0.74392  0.01613  1.0000
  C   C184      1.0  0.45970  0.77860  0.03147  1.0000
  C   C185      1.0  0.49272  0.96019  0.17057  1.0000
  C   C186      1.0  0.49636  0.98021  0.19710  1.0000
  C   C187      1.0  0.50361  0.02012  0.19710  1.0000
  C   C188      1.0  0.50726  0.04019  0.17059  1.0000
  C   C189      1.0  0.54025  0.22165  0.97034  1.0000
  C   C190      1.0  0.54654  0.25626  0.98565  1.0000
  C   C191      1.0  0.54655  0.25629  0.01619  1.0000
  C   C192      1.0  0.54025  0.22168  0.03157  1.0000
  H   H57       1.0  0.48731  0.93045  0.83113  1.0000
  O   O25       1.0  0.49281  0.96073  0.77880  1.0000
  O   O26       1.0  0.50713  0.03949  0.77888  1.0000
  H   H58       1.0  0.51261  0.06965  0.83125  1.0000
  H   H59       1.0  0.45966  0.77836  0.94754  1.0000
  O   O27       1.0  0.44724  0.71002  0.97072  1.0000
  O   O28       1.0  0.44726  0.71014  0.03104  1.0000
  H   H60       1.0  0.45969  0.77854  0.05411  1.0000
  H   H61       1.0  0.48735  0.93065  0.17064  1.0000
  O   O29       1.0  0.49282  0.96078  0.22298  1.0000
  O   O30       1.0  0.50712  0.03945  0.22298  1.0000
  H   H62       1.0  0.51263  0.06973  0.17066  1.0000
  H   H63       1.0  0.54026  0.22172  0.94775  1.0000
  O   O31       1.0  0.55268  0.29006  0.97079  1.0000
  O   O32       1.0  0.55269  0.29008  0.03101  1.0000
  H   H64       1.0  0.54027  0.22177  0.05420  1.0000
  Ni  Ni4       1.0  0.49998  0.00010  0.00010  1.0000
  C   C193      1.0  0.39692  0.55074  0.00010  1.0000
  C   C194      1.0  0.43271  0.54116  0.00010  1.0000
  C   C195      1.0  0.45891  0.56736  0.00010  1.0000
  C   C196      1.0  0.44931  0.60315  0.00010  1.0000
  C   C197      1.0  0.41352  0.61273  0.00010  1.0000
  C   C198      1.0  0.38732  0.58653  0.00010  1.0000
  O   O33       1.0  0.37334  0.52716  0.00010  1.0000
  O   O34       1.0  0.44135  0.50894  0.00010  1.0000
  O   O35       1.0  0.49112  0.55873  0.00010  1.0000
  O   O36       1.0  0.47289  0.62673  0.00010  1.0000
  O   O37       1.0  0.40489  0.64494  0.00010  1.0000
  O   O38       1.0  0.35511  0.59516  0.00010  1.0000
  C   C199      1.0  0.89691  0.94930  0.50049  1.0000
  C   C200      1.0  0.93270  0.95889  0.50052  1.0000
  C   C201      1.0  0.95890  0.93269  0.50053  1.0000
  C   C202      1.0  0.94931  0.89691  0.50049  1.0000
  C   C203      1.0  0.91352  0.88732  0.50046  1.0000
  C   C204      1.0  0.88732  0.91352  0.50046  1.0000
  O   O39       1.0  0.87332  0.97289  0.50049  1.0000
  O   O40       1.0  0.94133  0.99111  0.50056  1.0000
  O   O41       1.0  0.99111  0.94133  0.50056  1.0000
  O   O42       1.0  0.97289  0.87332  0.50049  1.0000
  O   O43       1.0  0.90489  0.85510  0.50043  1.0000
  O   O44       1.0  0.85510  0.90488  0.50043  1.0000
  C   C205      1.0  0.56736  0.45890  0.00010  1.0000
  C   C206      1.0  0.60315  0.44931  0.00010  1.0000
  C   C207      1.0  0.61273  0.41352  0.00010  1.0000
  C   C208      1.0  0.58653  0.38732  0.00010  1.0000
  C   C209      1.0  0.55074  0.39692  0.00010  1.0000
  C   C210      1.0  0.54116  0.43271  0.00010  1.0000
  O   O45       1.0  0.55873  0.49112  0.00010  1.0000
  O   O46       1.0  0.62673  0.47289  0.00010  1.0000
  O   O47       1.0  0.64494  0.40488  0.00010  1.0000
  O   O48       1.0  0.59516  0.35511  0.00010  1.0000
  O   O49       1.0  0.52716  0.37334  0.00010  1.0000
  O   O50       1.0  0.50894  0.44134  0.00010  1.0000
  C   C211      1.0  0.06737  0.04117  0.50138  1.0000
  C   C212      1.0  0.10316  0.05076  0.50141  1.0000
  C   C213      1.0  0.11275  0.08655  0.50144  1.0000
  C   C214      1.0  0.08655  0.11275  0.50144  1.0000
  C   C215      1.0  0.05076  0.10316  0.50141  1.0000
  C   C216      1.0  0.04117  0.06737  0.50138  1.0000
  O   O51       1.0  0.05874  0.00896  0.50135  1.0000
  O   O52       1.0  0.12675  0.02718  0.50141  1.0000
  O   O53       1.0  0.14497  0.09518  0.50147  1.0000
  O   O54       1.0  0.09518  0.14496  0.50147  1.0000
  O   O55       1.0  0.02718  0.12674  0.50141  1.0000
  O   O56       1.0  0.00896  0.05874  0.50135  1.0000
  Cu  Cu1       1.0  0.50003  0.50003  0.00010  1.0000
  Cu  Cu2       1.0  0.00010  0.00010  0.50095  1.0000
  Zn  Zn1       1.0  0.32717  0.55692  0.00010  1.0000
  Zn  Zn2       1.0  0.94315  0.82711  0.50054  1.0000
  Zn  Zn3       1.0  0.67294  0.44307  0.00010  1.0000
  Zn  Zn4       1.0  0.05702  0.17296  0.50135  1.0000
  Zn  Zn5       1.0  0.82711  0.94315  0.50054  1.0000
  Zn  Zn6       1.0  0.55692  0.32717  0.00010  1.0000
  Zn  Zn7       1.0  0.17296  0.05699  0.50135  1.0000
  Zn  Zn8       1.0  0.44307  0.67294  0.00010  1.0000
  Zn  Zn9       1.0  0.00010  0.49999  0.25090  1.0000
  Zn  Zn10      1.0  0.00010  0.49999  0.75092  1.0000
  Zn  Zn11      1.0  0.49999  0.00010  0.25090  1.0000
  Zn  Zn12      1.0  0.49999  0.00010  0.75092  1.0000
