data_image0
_chemical_formula_structural       C7NCNCNC3NCNC11NCNC7NHO2H2O2H2O2H2O2HNiC7NCNCNC3NCNC11NCNC7NHO2H2O2H2O2H2O2HNiC7NCNCNC3NCNC11NCNC7NHO2H2O2H2O2H2O2HNiC7NCNCNC3NCNC11NCNC7NHO2H2O2H2O2H2O2HNiC26H7O2H2O2HC4HO2HC26H7O2H2O2HC4HO2HC26H7O2H2O2HC4HO2HC26H7O2H2O2HC4HO2HCu2Zn12
_chemical_formula_sum              "C248 N32 H80 O56 Ni4 Cu2 Zn12"
_cell_length_a       48.719
_cell_length_b       48.7197
_cell_length_c       38.4794
_cell_angle_alpha    90.0027
_cell_angle_beta     90.0035
_cell_angle_gamma    90.0014

_space_group_name_H-M_alt    "P 1"
_space_group_IT_number       1

loop_
  _space_group_symop_operation_xyz
  'x, y, z'

loop_
  _atom_site_type_symbol
  _atom_site_label
  _atom_site_symmetry_multiplicity
  _atom_site_fract_x
  _atom_site_fract_y
  _atom_site_fract_z
  _atom_site_occupancy
  C   C1        1.0  0.88975  0.46007  0.04106  1.0000
  C   C2        1.0  0.86396  0.45075  0.02075  1.0000
  C   C3        1.0  0.86392  0.45084  0.98031  1.0000
  C   C4        1.0  0.88967  0.46027  0.95999  1.0000
  C   C5        1.0  0.91469  0.46932  0.98118  1.0000
  C   C6        1.0  0.91474  0.46921  0.01986  1.0000
  C   C7        1.0  0.94284  0.47941  0.03194  1.0000
  N   N1        1.0  0.96098  0.48611  0.00010  1.0000
  C   C8        1.0  0.94277  0.47959  0.96909  1.0000
  N   N2        1.0  0.94983  0.48229  0.93203  1.0000
  C   C9        1.0  0.97734  0.49230  0.92246  1.0000
  N   N3        1.0  0.00010  0.50070  0.94696  1.0000
  C   C10       1.0  0.02403  0.50916  0.92247  1.0000
  C   C11       1.0  0.01503  0.50598  0.88462  1.0000
  C   C12       1.0  0.98630  0.49559  0.88461  1.0000
  N   N4        1.0  0.04046  0.51512  0.00010  1.0000
  C   C13       1.0  0.05867  0.52167  0.96910  1.0000
  N   N5        1.0  0.05158  0.51905  0.93204  1.0000
  C   C14       1.0  0.08674  0.53195  0.98119  1.0000
  C   C15       1.0  0.08670  0.53206  0.01986  1.0000
  C   C16       1.0  0.05859  0.52186  0.03194  1.0000
  C   C17       1.0  0.97057  0.48991  0.85091  1.0000
  C   C18       1.0  0.98566  0.49540  0.81620  1.0000
  C   C19       1.0  0.01567  0.50631  0.81621  1.0000
  C   C20       1.0  0.03077  0.51172  0.85095  1.0000
  C   C21       1.0  0.11168  0.54121  0.04106  1.0000
  C   C22       1.0  0.13748  0.55052  0.02075  1.0000
  C   C23       1.0  0.13751  0.55043  0.98032  1.0000
  C   C24       1.0  0.11176  0.54101  0.96000  1.0000
  N   N6        1.0  0.00010  0.50067  0.05408  1.0000
  C   C25       1.0  0.02398  0.50929  0.07856  1.0000
  N   N7        1.0  0.05145  0.51940  0.06900  1.0000
  C   C26       1.0  0.01502  0.50602  0.11641  1.0000
  C   C27       1.0  0.98637  0.49544  0.11642  1.0000
  C   C28       1.0  0.97742  0.49208  0.07856  1.0000
  C   C29       1.0  0.97064  0.48971  0.15011  1.0000
  C   C30       1.0  0.98569  0.49533  0.18483  1.0000
  C   C31       1.0  0.01567  0.50634  0.18482  1.0000
  C   C32       1.0  0.03074  0.51183  0.15009  1.0000
  N   N8        1.0  0.94997  0.48193  0.06900  1.0000
  H   H1        1.0  0.89011  0.46013  0.06835  1.0000
  O   O1        1.0  0.84222  0.44281  0.03756  1.0000
  O   O2        1.0  0.84215  0.44295  0.96351  1.0000
  H   H2        1.0  0.88998  0.46046  0.93270  1.0000
  H   H3        1.0  0.95031  0.48256  0.85134  1.0000
  O   O3        1.0  0.97319  0.49087  0.78688  1.0000
  O   O4        1.0  0.02814  0.51090  0.78692  1.0000
  H   H4        1.0  0.05103  0.51907  0.85141  1.0000
  H   H5        1.0  0.11132  0.54116  0.06835  1.0000
  O   O5        1.0  0.15923  0.55843  0.03756  1.0000
  O   O6        1.0  0.15928  0.55830  0.96351  1.0000
  H   H6        1.0  0.11145  0.54084  0.93271  1.0000
  H   H7        1.0  0.95042  0.48227  0.14967  1.0000
  O   O7        1.0  0.97321  0.49083  0.21414  1.0000
  O   O8        1.0  0.02813  0.51094  0.21412  1.0000
  H   H8        1.0  0.05096  0.51928  0.14963  1.0000
  Ni  Ni1       1.0  0.00010  0.50061  0.00010  1.0000
  C   C33       1.0  0.01146  0.47062  0.65010  1.0000
  C   C34       1.0  0.00603  0.48571  0.68483  1.0000
  C   C35       1.0  0.99519  0.51576  0.68483  1.0000
  C   C36       1.0  0.98974  0.53086  0.65011  1.0000
  C   C37       1.0  0.99541  0.51511  0.61642  1.0000
  C   C38       1.0  0.00575  0.48636  0.61642  1.0000
  C   C39       1.0  0.00899  0.47739  0.57856  1.0000
  N   N9        1.0  0.00010  0.50074  0.55408  1.0000
  C   C40       1.0  0.99218  0.52409  0.57857  1.0000
  N   N10       1.0  0.98228  0.55164  0.56900  1.0000
  C   C41       1.0  0.97968  0.55874  0.53194  1.0000
  N   N11       1.0  0.98621  0.54053  0.50052  1.0000
  C   C42       1.0  0.97955  0.55868  0.46909  1.0000
  C   C43       1.0  0.96941  0.58681  0.48117  1.0000
  C   C44       1.0  0.96947  0.58684  0.51984  1.0000
  N   N12       1.0  0.00010  0.50076  0.44695  1.0000
  C   C45       1.0  0.99207  0.52405  0.42246  1.0000
  N   N13       1.0  0.98201  0.55154  0.43202  1.0000
  C   C46       1.0  0.99539  0.51510  0.38461  1.0000
  C   C47       1.0  0.00595  0.48644  0.38461  1.0000
  C   C48       1.0  0.00925  0.47748  0.42247  1.0000
  C   C49       1.0  0.96041  0.61186  0.54102  1.0000
  C   C50       1.0  0.95102  0.63762  0.52069  1.0000
  C   C51       1.0  0.95101  0.63760  0.48025  1.0000
  C   C52       1.0  0.96032  0.61180  0.45995  1.0000
  C   C53       1.0  0.01173  0.47072  0.35093  1.0000
  C   C54       1.0  0.00616  0.48576  0.31621  1.0000
  C   C55       1.0  0.99514  0.51574  0.31620  1.0000
  C   C56       1.0  0.98961  0.53081  0.35092  1.0000
  N   N14       1.0  0.01514  0.46102  0.50051  1.0000
  C   C57       1.0  0.02188  0.44290  0.46909  1.0000
  N   N15       1.0  0.01939  0.45002  0.43203  1.0000
  C   C58       1.0  0.03210  0.41480  0.48117  1.0000
  C   C59       1.0  0.03198  0.41475  0.51984  1.0000
  C   C60       1.0  0.02166  0.44281  0.53193  1.0000
  C   C61       1.0  0.04109  0.38975  0.54103  1.0000
  C   C62       1.0  0.05059  0.36403  0.52070  1.0000
  C   C63       1.0  0.05067  0.36407  0.48026  1.0000
  C   C64       1.0  0.04129  0.38984  0.45995  1.0000
  N   N16       1.0  0.01894  0.44986  0.56899  1.0000
  H   H9        1.0  0.01877  0.45035  0.64965  1.0000
  O   O9        1.0  0.01055  0.47323  0.71413  1.0000
  O   O10       1.0  0.99068  0.52824  0.71414  1.0000
  H   H10       1.0  0.98244  0.55113  0.64966  1.0000
  H   H11       1.0  0.96055  0.61155  0.56831  1.0000
  O   O11       1.0  0.94311  0.65938  0.53748  1.0000
  O   O12       1.0  0.94313  0.65936  0.46343  1.0000
  H   H12       1.0  0.96042  0.61145  0.43267  1.0000
  H   H13       1.0  0.01917  0.45050  0.35138  1.0000
  O   O13       1.0  0.01069  0.47329  0.28690  1.0000
  O   O14       1.0  0.99054  0.52819  0.28689  1.0000
  H   H14       1.0  0.98218  0.55103  0.35136  1.0000
  H   H15       1.0  0.04090  0.39005  0.56831  1.0000
  O   O15       1.0  0.05856  0.34229  0.53749  1.0000
  O   O16       1.0  0.05865  0.34234  0.46344  1.0000
  H   H16       1.0  0.04123  0.39021  0.43267  1.0000
  Ni  Ni2       1.0  0.00010  0.50075  0.50052  1.0000
  C   C65       1.0  0.61167  0.96013  0.45994  1.0000
  C   C66       1.0  0.63746  0.95080  0.48025  1.0000
  C   C67       1.0  0.63750  0.95089  0.52069  1.0000
  C   C68       1.0  0.61175  0.96033  0.54102  1.0000
  C   C69       1.0  0.58673  0.96938  0.51982  1.0000
  C   C70       1.0  0.58668  0.96926  0.48115  1.0000
  C   C71       1.0  0.55858  0.97946  0.46906  1.0000
  N   N17       1.0  0.54044  0.98617  0.50049  1.0000
  C   C72       1.0  0.55865  0.97964  0.53191  1.0000
  N   N18       1.0  0.55159  0.98235  0.56898  1.0000
  C   C73       1.0  0.52408  0.99235  0.57854  1.0000
  N   N19       1.0  0.50073  0.00010  0.55405  1.0000
  C   C74       1.0  0.47739  0.00921  0.57854  1.0000
  C   C75       1.0  0.48639  0.00603  0.61639  1.0000
  C   C76       1.0  0.51512  0.99565  0.61640  1.0000
  N   N20       1.0  0.46096  0.01518  0.50049  1.0000
  C   C77       1.0  0.44276  0.02172  0.53191  1.0000
  N   N21       1.0  0.44984  0.01910  0.56897  1.0000
  C   C78       1.0  0.41468  0.03201  0.51982  1.0000
  C   C79       1.0  0.41472  0.03212  0.48115  1.0000
  C   C80       1.0  0.44283  0.02192  0.46907  1.0000
  C   C81       1.0  0.53085  0.98996  0.65010  1.0000
  C   C82       1.0  0.51576  0.99546  0.68481  1.0000
  C   C83       1.0  0.48575  0.00636  0.68479  1.0000
  C   C84       1.0  0.47065  0.01178  0.65006  1.0000
  C   C85       1.0  0.38975  0.04127  0.45995  1.0000
  C   C86       1.0  0.36395  0.05058  0.48026  1.0000
  C   C87       1.0  0.36391  0.05049  0.52069  1.0000
  C   C88       1.0  0.38967  0.04107  0.54102  1.0000
  N   N22       1.0  0.50072  0.00010  0.44693  1.0000
  C   C89       1.0  0.47744  0.00934  0.42245  1.0000
  N   N23       1.0  0.44997  0.01945  0.43201  1.0000
  C   C90       1.0  0.48640  0.00607  0.38459  1.0000
  C   C91       1.0  0.51505  0.99549  0.38459  1.0000
  C   C92       1.0  0.52400  0.99214  0.42244  1.0000
  C   C93       1.0  0.53078  0.98977  0.35090  1.0000
  C   C94       1.0  0.51573  0.99538  0.31618  1.0000
  C   C95       1.0  0.48575  0.00639  0.31619  1.0000
  C   C96       1.0  0.47069  0.01189  0.35092  1.0000
  N   N24       1.0  0.55145  0.98199  0.43201  1.0000
  H   H17       1.0  0.61131  0.96019  0.43266  1.0000
  O   O17       1.0  0.65920  0.94286  0.46344  1.0000
  O   O18       1.0  0.65927  0.94301  0.53749  1.0000
  H   H18       1.0  0.61144  0.96051  0.56830  1.0000
  H   H19       1.0  0.55111  0.98261  0.64967  1.0000
  O   O19       1.0  0.52823  0.99092  0.71413  1.0000
  O   O20       1.0  0.47328  0.01096  0.71409  1.0000
  H   H20       1.0  0.45040  0.01913  0.64960  1.0000
  H   H21       1.0  0.39010  0.04122  0.43267  1.0000
  O   O21       1.0  0.34220  0.05849  0.46345  1.0000
  O   O22       1.0  0.34215  0.05836  0.53750  1.0000
  H   H22       1.0  0.38997  0.04089  0.56830  1.0000
  H   H23       1.0  0.55100  0.98232  0.35133  1.0000
  O   O23       1.0  0.52821  0.99088  0.28687  1.0000
  O   O24       1.0  0.47329  0.01100  0.28689  1.0000
  H   H24       1.0  0.45046  0.01933  0.35138  1.0000
  Ni  Ni3       1.0  0.50070  0.00010  0.50049  1.0000
  C   C97       1.0  0.46047  0.88966  0.04104  1.0000
  C   C98       1.0  0.45102  0.86391  0.02073  1.0000
  C   C99       1.0  0.45093  0.86394  0.98029  1.0000
  C   C100      1.0  0.46027  0.88973  0.95997  1.0000
  C   C101      1.0  0.46943  0.91471  0.98117  1.0000
  C   C102      1.0  0.46954  0.91467  0.01984  1.0000
  C   C103      1.0  0.47981  0.94275  0.03192  1.0000
  N   N25       1.0  0.48634  0.96095  0.00010  1.0000
  C   C104      1.0  0.47963  0.94281  0.96908  1.0000
  N   N26       1.0  0.48209  0.94995  0.93201  1.0000
  C   C105      1.0  0.49212  0.97745  0.92244  1.0000
  N   N27       1.0  0.50071  0.00010  0.94694  1.0000
  C   C106      1.0  0.50924  0.02405  0.92245  1.0000
  C   C107      1.0  0.50589  0.01511  0.88460  1.0000
  C   C108      1.0  0.49537  0.98644  0.88459  1.0000
  N   N28       1.0  0.51524  0.04047  0.00010  1.0000
  C   C109      1.0  0.52194  0.05862  0.96908  1.0000
  N   N29       1.0  0.51939  0.05151  0.93202  1.0000
  C   C110      1.0  0.53212  0.08673  0.98117  1.0000
  C   C111      1.0  0.53201  0.08677  0.01984  1.0000
  C   C112      1.0  0.52174  0.05869  0.03192  1.0000
  C   C113      1.0  0.48960  0.97073  0.85089  1.0000
  C   C114      1.0  0.49510  0.98582  0.81618  1.0000
  C   C115      1.0  0.50605  0.01582  0.81620  1.0000
  C   C116      1.0  0.51161  0.03086  0.85093  1.0000
  C   C117      1.0  0.54106  0.11178  0.04104  1.0000
  C   C118      1.0  0.55053  0.13752  0.02073  1.0000
  C   C119      1.0  0.55062  0.13749  0.98030  1.0000
  C   C120      1.0  0.54127  0.11171  0.95997  1.0000
  N   N30       1.0  0.50074  0.00010  0.05406  1.0000
  C   C121      1.0  0.50911  0.02410  0.07854  1.0000
  N   N31       1.0  0.51904  0.05164  0.06898  1.0000
  C   C122      1.0  0.50585  0.01514  0.11640  1.0000
  C   C123      1.0  0.49553  0.98639  0.11640  1.0000
  C   C124      1.0  0.49234  0.97738  0.07855  1.0000
  C   C125      1.0  0.48980  0.97067  0.15009  1.0000
  C   C126      1.0  0.49517  0.98580  0.18481  1.0000
  C   C127      1.0  0.50602  0.01584  0.18480  1.0000
  C   C128      1.0  0.51150  0.03091  0.15007  1.0000
  N   N32       1.0  0.48246  0.94983  0.06898  1.0000
  H   H25       1.0  0.46065  0.88998  0.06833  1.0000
  O   O25       1.0  0.44312  0.84216  0.03754  1.0000
  O   O26       1.0  0.44297  0.84220  0.96349  1.0000
  H   H26       1.0  0.46032  0.89008  0.93269  1.0000
  H   H27       1.0  0.48220  0.95049  0.85132  1.0000
  O   O27       1.0  0.49055  0.97336  0.78686  1.0000
  O   O28       1.0  0.51055  0.02832  0.78690  1.0000
  H   H28       1.0  0.51901  0.05110  0.85139  1.0000
  H   H29       1.0  0.54087  0.11148  0.06832  1.0000
  O   O29       1.0  0.55846  0.15927  0.03754  1.0000
  O   O30       1.0  0.55859  0.15922  0.96349  1.0000
  H   H30       1.0  0.54121  0.11137  0.93269  1.0000
  H   H31       1.0  0.48249  0.95039  0.14966  1.0000
  O   O31       1.0  0.49059  0.97335  0.21412  1.0000
  O   O32       1.0  0.51051  0.02834  0.21410  1.0000
  H   H32       1.0  0.51881  0.05118  0.14961  1.0000
  Ni  Ni4       1.0  0.50080  0.00010  0.00010  1.0000
  C   C129      1.0  0.34482  0.61190  0.00010  1.0000
  C   C130      1.0  0.33664  0.64242  0.00010  1.0000
  C   C131      1.0  0.35900  0.66477  0.00010  1.0000
  C   C132      1.0  0.38952  0.65660  0.00010  1.0000
  C   C133      1.0  0.39770  0.62607  0.00010  1.0000
  C   C134      1.0  0.37535  0.60371  0.00010  1.0000
  C   C135      1.0  0.41187  0.67895  0.00010  1.0000
  C   C136      1.0  0.40370  0.70948  0.00010  1.0000
  C   C137      1.0  0.37316  0.71766  0.00010  1.0000
  C   C138      1.0  0.35081  0.69531  0.00010  1.0000
  C   C139      1.0  0.32246  0.58955  0.00010  1.0000
  C   C140      1.0  0.29194  0.59772  0.00010  1.0000
  C   C141      1.0  0.28376  0.62825  0.00010  1.0000
  C   C142      1.0  0.30611  0.65061  0.00010  1.0000
  C   C143      1.0  0.38354  0.57318  0.00010  1.0000
  C   C144      1.0  0.41406  0.56501  0.00010  1.0000
  C   C145      1.0  0.43641  0.58736  0.00010  1.0000
  C   C146      1.0  0.42824  0.61788  0.00010  1.0000
  C   C147      1.0  0.46695  0.57917  0.00010  1.0000
  C   C148      1.0  0.47514  0.54864  0.00010  1.0000
  C   C149      1.0  0.45279  0.52628  0.00010  1.0000
  C   C150      1.0  0.42225  0.53447  0.00010  1.0000
  C   C151      1.0  0.36498  0.74820  0.00010  1.0000
  C   C152      1.0  0.38733  0.77055  0.00010  1.0000
  C   C153      1.0  0.41786  0.76236  0.00010  1.0000
  C   C154      1.0  0.42605  0.73183  0.00010  1.0000
  H   H33       1.0  0.43448  0.67289  0.00010  1.0000
  H   H34       1.0  0.32821  0.70136  0.00010  1.0000
  H   H35       1.0  0.32853  0.56693  0.00010  1.0000
  H   H36       1.0  0.30005  0.67320  0.00010  1.0000
  H   H37       1.0  0.36699  0.55663  0.00010  1.0000
  H   H38       1.0  0.44479  0.63443  0.00010  1.0000
  H   H39       1.0  0.48350  0.59572  0.00010  1.0000
  O   O33       1.0  0.50488  0.54067  0.00010  1.0000
  O   O34       1.0  0.46075  0.49655  0.00010  1.0000
  H   H40       1.0  0.40570  0.51792  0.00010  1.0000
  H   H41       1.0  0.34238  0.75425  0.00010  1.0000
  O   O35       1.0  0.37936  0.80029  0.00010  1.0000
  O   O36       1.0  0.43964  0.78414  0.00010  1.0000
  H   H42       1.0  0.44865  0.72578  0.00010  1.0000
  C   C155      1.0  0.25322  0.63644  0.00010  1.0000
  C   C156      1.0  0.23087  0.61409  0.00010  1.0000
  C   C157      1.0  0.23905  0.58355  0.00010  1.0000
  C   C158      1.0  0.26959  0.57537  0.00010  1.0000
  H   H43       1.0  0.24717  0.65904  0.00010  1.0000
  O   O37       1.0  0.20113  0.62206  0.00010  1.0000
  O   O38       1.0  0.21728  0.56178  0.00010  1.0000
  H   H44       1.0  0.27564  0.55277  0.00010  1.0000
  C   C159      1.0  0.84489  0.88965  0.50043  1.0000
  C   C160      1.0  0.83672  0.85913  0.50043  1.0000
  C   C161      1.0  0.85907  0.83678  0.50043  1.0000
  C   C162      1.0  0.88959  0.84495  0.50043  1.0000
  C   C163      1.0  0.89778  0.87548  0.50043  1.0000
  C   C164      1.0  0.87543  0.89784  0.50043  1.0000
  C   C165      1.0  0.91194  0.82260  0.50043  1.0000
  C   C166      1.0  0.90377  0.79207  0.50043  1.0000
  C   C167      1.0  0.87323  0.78389  0.50043  1.0000
  C   C168      1.0  0.85088  0.80624  0.50043  1.0000
  C   C169      1.0  0.82254  0.91200  0.50043  1.0000
  C   C170      1.0  0.79202  0.90383  0.50043  1.0000
  C   C171      1.0  0.78383  0.87329  0.50043  1.0000
  C   C172      1.0  0.80618  0.85094  0.50043  1.0000
  C   C173      1.0  0.88361  0.92837  0.50043  1.0000
  C   C174      1.0  0.91414  0.93654  0.50042  1.0000
  C   C175      1.0  0.93649  0.91419  0.50042  1.0000
  C   C176      1.0  0.92832  0.88367  0.50043  1.0000
  C   C177      1.0  0.96703  0.92238  0.50042  1.0000
  C   C178      1.0  0.97521  0.95292  0.50042  1.0000
  C   C179      1.0  0.95286  0.97527  0.50042  1.0000
  C   C180      1.0  0.92232  0.96708  0.50042  1.0000
  C   C181      1.0  0.86505  0.75335  0.50044  1.0000
  C   C182      1.0  0.88740  0.73100  0.50044  1.0000
  C   C183      1.0  0.91794  0.73919  0.50043  1.0000
  C   C184      1.0  0.92612  0.76972  0.50043  1.0000
  H   H45       1.0  0.93456  0.82866  0.50043  1.0000
  H   H46       1.0  0.82828  0.80019  0.50043  1.0000
  H   H47       1.0  0.82861  0.93461  0.50043  1.0000
  H   H48       1.0  0.80013  0.82834  0.50043  1.0000
  H   H49       1.0  0.86707  0.94492  0.50043  1.0000
  H   H50       1.0  0.94486  0.86712  0.50043  1.0000
  H   H51       1.0  0.98357  0.90583  0.50042  1.0000
  O   O39       1.0  0.00495  0.96088  0.50042  1.0000
  O   O40       1.0  0.96083  0.00501  0.50042  1.0000
  H   H52       1.0  0.90578  0.98363  0.50042  1.0000
  H   H53       1.0  0.84245  0.74730  0.50044  1.0000
  O   O41       1.0  0.87943  0.70126  0.50044  1.0000
  O   O42       1.0  0.93971  0.71742  0.50043  1.0000
  H   H54       1.0  0.94872  0.77578  0.50043  1.0000
  C   C185      1.0  0.75329  0.86511  0.50043  1.0000
  C   C186      1.0  0.73094  0.88746  0.50043  1.0000
  C   C187      1.0  0.73913  0.91800  0.50043  1.0000
  C   C188      1.0  0.76967  0.92618  0.50043  1.0000
  H   H55       1.0  0.74724  0.84251  0.50044  1.0000
  O   O43       1.0  0.70120  0.87949  0.50043  1.0000
  O   O44       1.0  0.71736  0.93977  0.50043  1.0000
  H   H56       1.0  0.77572  0.94878  0.50043  1.0000
  C   C189      1.0  0.61181  0.34490  0.00010  1.0000
  C   C190      1.0  0.64234  0.33673  0.00010  1.0000
  C   C191      1.0  0.66469  0.35908  0.00010  1.0000
  C   C192      1.0  0.65652  0.38960  0.00010  1.0000
  C   C193      1.0  0.62598  0.39779  0.00010  1.0000
  C   C194      1.0  0.60363  0.37544  0.00010  1.0000
  C   C195      1.0  0.67887  0.41195  0.00010  1.0000
  C   C196      1.0  0.70939  0.40378  0.00010  1.0000
  C   C197      1.0  0.71758  0.37324  0.00010  1.0000
  C   C198      1.0  0.69522  0.35089  0.00010  1.0000
  C   C199      1.0  0.58946  0.32255  0.00010  1.0000
  C   C200      1.0  0.59763  0.29203  0.00010  1.0000
  C   C201      1.0  0.62817  0.28384  0.00010  1.0000
  C   C202      1.0  0.65052  0.30619  0.00010  1.0000
  C   C203      1.0  0.57309  0.38362  0.00010  1.0000
  C   C204      1.0  0.56492  0.41414  0.00010  1.0000
  C   C205      1.0  0.58727  0.43650  0.00010  1.0000
  C   C206      1.0  0.61779  0.42832  0.00010  1.0000
  C   C207      1.0  0.57909  0.46703  0.00010  1.0000
  C   C208      1.0  0.54855  0.47522  0.00010  1.0000
  C   C209      1.0  0.52620  0.45287  0.00010  1.0000
  C   C210      1.0  0.53438  0.42233  0.00010  1.0000
  C   C211      1.0  0.74811  0.36506  0.00010  1.0000
  C   C212      1.0  0.77047  0.38741  0.00010  1.0000
  C   C213      1.0  0.76228  0.41795  0.00010  1.0000
  C   C214      1.0  0.73174  0.42613  0.00010  1.0000
  H   H57       1.0  0.67280  0.43457  0.00010  1.0000
  H   H58       1.0  0.70128  0.32830  0.00010  1.0000
  H   H59       1.0  0.56685  0.32861  0.00010  1.0000
  H   H60       1.0  0.67312  0.30014  0.00010  1.0000
  H   H61       1.0  0.55654  0.36708  0.00010  1.0000
  H   H62       1.0  0.63434  0.44487  0.00010  1.0000
  H   H63       1.0  0.59563  0.48358  0.00010  1.0000
  O   O45       1.0  0.54058  0.50496  0.00010  1.0000
  O   O46       1.0  0.49646  0.46084  0.00010  1.0000
  H   H64       1.0  0.51784  0.40578  0.00010  1.0000
  H   H65       1.0  0.75417  0.34246  0.00010  1.0000
  O   O47       1.0  0.80021  0.37944  0.00010  1.0000
  O   O48       1.0  0.78405  0.43972  0.00010  1.0000
  H   H66       1.0  0.72569  0.44873  0.00010  1.0000
  C   C215      1.0  0.63635  0.25330  0.00010  1.0000
  C   C216      1.0  0.61400  0.23095  0.00010  1.0000
  C   C217      1.0  0.58346  0.23914  0.00010  1.0000
  C   C218      1.0  0.57528  0.26967  0.00010  1.0000
  H   H67       1.0  0.65895  0.24725  0.00010  1.0000
  O   O49       1.0  0.62197  0.20121  0.00010  1.0000
  O   O50       1.0  0.56169  0.21737  0.00010  1.0000
  H   H68       1.0  0.55268  0.27573  0.00010  1.0000
  C   C219      1.0  0.11189  0.15666  0.50045  1.0000
  C   C220      1.0  0.14242  0.16483  0.50045  1.0000
  C   C221      1.0  0.16477  0.14248  0.50045  1.0000
  C   C222      1.0  0.15660  0.11196  0.50045  1.0000
  C   C223      1.0  0.12606  0.10377  0.50045  1.0000
  C   C224      1.0  0.10371  0.12612  0.50045  1.0000
  C   C225      1.0  0.17895  0.08961  0.50045  1.0000
  C   C226      1.0  0.20947  0.09778  0.50045  1.0000
  C   C227      1.0  0.21766  0.12832  0.50046  1.0000
  C   C228      1.0  0.19531  0.15067  0.50046  1.0000
  C   C229      1.0  0.08954  0.17901  0.50045  1.0000
  C   C230      1.0  0.09771  0.20953  0.50046  1.0000
  C   C231      1.0  0.12825  0.21772  0.50046  1.0000
  C   C232      1.0  0.15060  0.19537  0.50046  1.0000
  C   C233      1.0  0.07317  0.11794  0.50045  1.0000
  C   C234      1.0  0.06500  0.08741  0.50044  1.0000
  C   C235      1.0  0.08735  0.06506  0.50044  1.0000
  C   C236      1.0  0.11787  0.07323  0.50045  1.0000
  C   C237      1.0  0.07917  0.03453  0.50044  1.0000
  C   C238      1.0  0.04863  0.02634  0.50044  1.0000
  C   C239      1.0  0.02628  0.04869  0.50044  1.0000
  C   C240      1.0  0.03446  0.07923  0.50044  1.0000
  C   C241      1.0  0.24820  0.13650  0.50046  1.0000
  C   C242      1.0  0.27055  0.11415  0.50046  1.0000
  C   C243      1.0  0.26236  0.08362  0.50046  1.0000
  C   C244      1.0  0.23182  0.07543  0.50045  1.0000
  H   H69       1.0  0.17288  0.06700  0.50045  1.0000
  H   H70       1.0  0.20136  0.17327  0.50046  1.0000
  H   H71       1.0  0.06693  0.17294  0.50045  1.0000
  H   H72       1.0  0.17320  0.20142  0.50046  1.0000
  H   H73       1.0  0.05663  0.13448  0.50045  1.0000
  H   H74       1.0  0.13442  0.05669  0.50044  1.0000
  H   H75       1.0  0.09571  0.01798  0.50044  1.0000
  O   O51       1.0  0.04066  0.99660  0.50043  1.0000
  O   O52       1.0  0.99654  0.04072  0.50043  1.0000
  H   H76       1.0  0.01792  0.09577  0.50044  1.0000
  H   H77       1.0  0.25425  0.15910  0.50046  1.0000
  O   O53       1.0  0.30029  0.12212  0.50046  1.0000
  O   O54       1.0  0.28413  0.06185  0.50046  1.0000
  H   H78       1.0  0.22577  0.05283  0.50045  1.0000
  C   C245      1.0  0.13644  0.24826  0.50046  1.0000
  C   C246      1.0  0.11409  0.27061  0.50046  1.0000
  C   C247      1.0  0.08355  0.26242  0.50046  1.0000
  C   C248      1.0  0.07536  0.23188  0.50046  1.0000
  H   H79       1.0  0.15904  0.25431  0.50046  1.0000
  O   O55       1.0  0.12205  0.30035  0.50046  1.0000
  O   O56       1.0  0.06178  0.28419  0.50046  1.0000
  H   H80       1.0  0.05276  0.22583  0.50045  1.0000
  Cu  Cu1       1.0  0.50067  0.50076  0.00010  1.0000
  Cu  Cu2       1.0  0.00010  0.00010  0.50043  1.0000
  Zn  Zn1       1.0  0.18423  0.57514  0.00010  1.0000
  Zn  Zn2       1.0  0.92635  0.68435  0.50045  1.0000
  Zn  Zn3       1.0  0.81716  0.42623  0.00010  1.0000
  Zn  Zn4       1.0  0.07526  0.31729  0.50047  1.0000
  Zn  Zn5       1.0  0.68426  0.92628  0.50045  1.0000
  Zn  Zn6       1.0  0.57518  0.18427  0.00010  1.0000
  Zn  Zn7       1.0  0.31719  0.07520  0.50047  1.0000
  Zn  Zn8       1.0  0.42627  0.81720  0.00010  1.0000
  Zn  Zn9       1.0  0.00010  0.50081  0.25051  1.0000
  Zn  Zn10      1.0  0.00010  0.50081  0.75052  1.0000
  Zn  Zn11      1.0  0.50065  0.00010  0.25049  1.0000
  Zn  Zn12      1.0  0.50065  0.00010  0.75049  1.0000
