data_image0
_chemical_formula_structural       C7NCNCNC3NCNC11NCNC7NH8C16HO2H2O2H2O2H2O2HNiC7NCNCNC3NCNC11NCNC7NH8C16HO2H2O2H2O2H2O2HNiC7NCNCNC3NCNC11NCNC7NH8C16HO2H2O2H2O2H2O2HNiC7NCNCNC3NCNC11NCNC7NH8C16HO2H2O2H2O2H2O2HNiC26H7O2H2O2HC4HO2HC26H7O2H2O2HC4HO2HC26H7O2H2O2HC4HO2HC26H7O2H2O2HC4HO2HCu2Zn12
_chemical_formula_sum              "C312 N32 H112 O56 Ni4 Cu2 Zn12"
_cell_length_a       54.8974
_cell_length_b       54.8974
_cell_length_c       50.1442
_cell_angle_alpha    90.2213
_cell_angle_beta     90.2213
_cell_angle_gamma    89.9972

_space_group_name_H-M_alt    "P 1"
_space_group_IT_number       1

loop_
  _space_group_symop_operation_xyz
  'x, y, z'

loop_
  _atom_site_type_symbol
  _atom_site_label
  _atom_site_symmetry_multiplicity
  _atom_site_fract_x
  _atom_site_fract_y
  _atom_site_fract_z
  _atom_site_occupancy
  C   C1        1.0  0.89852  0.46824  0.97544  1.0000
  C   C2        1.0  0.87537  0.46099  0.99105  1.0000
  C   C3        1.0  0.87542  0.46101  0.02197  1.0000
  C   C4        1.0  0.89861  0.46827  0.03756  1.0000
  C   C5        1.0  0.92112  0.47531  0.02140  1.0000
  C   C6        1.0  0.92108  0.47530  0.99158  1.0000
  C   C7        1.0  0.94639  0.48322  0.98222  1.0000
  N   N1        1.0  0.96237  0.48822  0.00654  1.0000
  C   C8        1.0  0.94646  0.48324  0.03081  1.0000
  N   N2        1.0  0.95391  0.48557  0.05970  1.0000
  C   C9        1.0  0.97905  0.49345  0.06821  1.0000
  N   N3        1.0  0.00010  0.50007  0.04995  1.0000
  C   C10       1.0  0.02139  0.50670  0.06824  1.0000
  C   C11       1.0  0.01322  0.50414  0.09727  1.0000
  C   C12       1.0  0.98726  0.49601  0.09728  1.0000
  N   N4        1.0  0.03788  0.51186  0.00674  1.0000
  C   C13       1.0  0.05382  0.51685  0.03102  1.0000
  N   N5        1.0  0.04649  0.51456  0.05981  1.0000
  C   C14       1.0  0.07914  0.52478  0.02165  1.0000
  C   C15       1.0  0.07912  0.52477  0.99187  1.0000
  C   C16       1.0  0.05379  0.51684  0.98247  1.0000
  C   C17       1.0  0.97318  0.49161  0.12311  1.0000
  C   C18       1.0  0.98672  0.49585  0.14968  1.0000
  C   C19       1.0  0.01365  0.50428  0.14970  1.0000
  C   C20       1.0  0.02726  0.50854  0.12314  1.0000
  C   C21       1.0  0.10164  0.53182  0.97572  1.0000
  C   C22       1.0  0.12482  0.53908  0.99126  1.0000
  C   C23       1.0  0.12483  0.53908  0.02215  1.0000
  C   C24       1.0  0.10168  0.53183  0.03776  1.0000
  N   N6        1.0  0.00010  0.50002  0.96331  1.0000
  C   C25       1.0  0.02119  0.50664  0.94508  1.0000
  N   N7        1.0  0.04636  0.51452  0.95363  1.0000
  C   C26       1.0  0.01300  0.50407  0.91600  1.0000
  C   C27       1.0  0.98701  0.49594  0.91597  1.0000
  C   C28       1.0  0.97884  0.49338  0.94500  1.0000
  C   C29       1.0  0.97296  0.49154  0.89009  1.0000
  C   C30       1.0  0.98656  0.49580  0.86352  1.0000
  C   C31       1.0  0.01351  0.50423  0.86357  1.0000
  C   C32       1.0  0.02708  0.50848  0.89019  1.0000
  N   N8        1.0  0.95371  0.48551  0.95342  1.0000
  H   H1        1.0  0.89877  0.46831  0.95281  1.0000
  H   H2        1.0  0.89892  0.46836  0.06021  1.0000
  H   H3        1.0  0.95345  0.48543  0.12277  1.0000
  H   H4        1.0  0.04698  0.51471  0.12284  1.0000
  H   H5        1.0  0.10135  0.53173  0.95310  1.0000
  H   H6        1.0  0.10140  0.53175  0.06039  1.0000
  H   H7        1.0  0.95323  0.48536  0.89038  1.0000
  H   H8        1.0  0.04683  0.51466  0.89054  1.0000
  C   C33       1.0  0.97334  0.49166  0.83691  1.0000
  C   C34       1.0  0.98676  0.49586  0.81040  1.0000
  C   C35       1.0  0.01341  0.50420  0.81044  1.0000
  C   C36       1.0  0.02678  0.50839  0.83700  1.0000
  C   C37       1.0  0.85214  0.45372  0.97588  1.0000
  C   C38       1.0  0.82903  0.44648  0.99127  1.0000
  C   C39       1.0  0.82908  0.44650  0.02184  1.0000
  C   C40       1.0  0.85223  0.45374  0.03718  1.0000
  C   C41       1.0  0.97345  0.49169  0.17628  1.0000
  C   C42       1.0  0.98682  0.49588  0.20280  1.0000
  C   C43       1.0  0.01346  0.50422  0.20280  1.0000
  C   C44       1.0  0.02686  0.50841  0.17629  1.0000
  C   C45       1.0  0.14801  0.54634  0.97604  1.0000
  C   C46       1.0  0.17111  0.55357  0.99135  1.0000
  C   C47       1.0  0.17113  0.55358  0.02189  1.0000
  C   C48       1.0  0.14802  0.54634  0.03727  1.0000
  H   H9        1.0  0.95361  0.48548  0.83683  1.0000
  O   O1        1.0  0.97382  0.49181  0.78450  1.0000
  O   O2        1.0  0.02640  0.50827  0.78458  1.0000
  H   H10       1.0  0.04653  0.51457  0.83695  1.0000
  H   H11       1.0  0.85207  0.45370  0.95324  1.0000
  O   O3        1.0  0.80645  0.43941  0.97643  1.0000
  O   O4        1.0  0.80652  0.43944  0.03675  1.0000
  H   H12       1.0  0.85219  0.45373  0.05982  1.0000
  H   H13       1.0  0.95373  0.48552  0.17634  1.0000
  O   O5        1.0  0.97384  0.49182  0.22868  1.0000
  O   O6        1.0  0.02636  0.50826  0.22868  1.0000
  H   H14       1.0  0.04658  0.51459  0.17636  1.0000
  H   H15       1.0  0.14805  0.54635  0.95344  1.0000
  O   O7        1.0  0.19367  0.56063  0.97648  1.0000
  O   O8        1.0  0.19368  0.56064  0.03670  1.0000
  H   H16       1.0  0.14809  0.54636  0.05990  1.0000
  Ni  Ni1       1.0  0.00010  0.50004  0.00664  1.0000
  C   C49       1.0  0.00860  0.47290  0.39016  1.0000
  C   C50       1.0  0.00434  0.48651  0.36357  1.0000
  C   C51       1.0  0.99591  0.51346  0.36355  1.0000
  C   C52       1.0  0.99165  0.52705  0.39012  1.0000
  C   C53       1.0  0.99606  0.51296  0.41598  1.0000
  C   C54       1.0  0.00420  0.48697  0.41600  1.0000
  C   C55       1.0  0.00675  0.47881  0.44506  1.0000
  N   N9        1.0  0.00010  0.50001  0.46333  1.0000
  C   C56       1.0  0.99349  0.52117  0.44503  1.0000
  N   N10       1.0  0.98561  0.54635  0.45350  1.0000
  C   C57       1.0  0.98329  0.55377  0.48233  1.0000
  N   N11       1.0  0.98827  0.53786  0.50664  1.0000
  C   C58       1.0  0.98328  0.55380  0.53090  1.0000
  C   C59       1.0  0.97536  0.57911  0.52146  1.0000
  C   C60       1.0  0.97535  0.57911  0.49167  1.0000
  N   N12       1.0  0.00010  0.50019  0.54996  1.0000
  C   C61       1.0  0.99343  0.52136  0.56819  1.0000
  N   N13       1.0  0.98558  0.54645  0.55971  1.0000
  C   C62       1.0  0.99599  0.51319  0.59726  1.0000
  C   C63       1.0  0.00412  0.48722  0.59731  1.0000
  C   C64       1.0  0.00668  0.47903  0.56827  1.0000
  C   C65       1.0  0.96831  0.60162  0.47547  1.0000
  C   C66       1.0  0.96105  0.62479  0.49094  1.0000
  C   C67       1.0  0.96105  0.62480  0.52183  1.0000
  C   C68       1.0  0.96830  0.60165  0.53750  1.0000
  C   C69       1.0  0.00853  0.47315  0.62318  1.0000
  C   C70       1.0  0.00429  0.48670  0.64974  1.0000
  C   C71       1.0  0.99586  0.51362  0.64967  1.0000
  C   C72       1.0  0.99160  0.52723  0.62307  1.0000
  N   N14       1.0  0.01191  0.46233  0.50665  1.0000
  C   C73       1.0  0.01689  0.44644  0.53096  1.0000
  N   N15       1.0  0.01456  0.45389  0.55981  1.0000
  C   C74       1.0  0.02482  0.42109  0.52163  1.0000
  C   C75       1.0  0.02483  0.42107  0.49182  1.0000
  C   C76       1.0  0.01691  0.44637  0.48238  1.0000
  C   C77       1.0  0.03189  0.39851  0.47576  1.0000
  C   C78       1.0  0.03915  0.37534  0.49142  1.0000
  C   C79       1.0  0.03913  0.37538  0.52234  1.0000
  C   C80       1.0  0.03187  0.39859  0.53784  1.0000
  N   N16       1.0  0.01461  0.45371  0.45352  1.0000
  H   H17       1.0  0.01478  0.45317  0.39050  1.0000
  H   H18       1.0  0.98547  0.54680  0.39042  1.0000
  H   H19       1.0  0.96840  0.60133  0.45283  1.0000
  H   H20       1.0  0.96838  0.60139  0.56013  1.0000
  H   H21       1.0  0.01470  0.45343  0.62290  1.0000
  H   H22       1.0  0.98542  0.54696  0.62271  1.0000
  H   H23       1.0  0.03182  0.39875  0.45311  1.0000
  H   H24       1.0  0.03177  0.39889  0.56049  1.0000
  C   C81       1.0  0.04641  0.35214  0.47631  1.0000
  C   C82       1.0  0.05364  0.32904  0.49177  1.0000
  C   C83       1.0  0.05363  0.32907  0.52235  1.0000
  C   C84       1.0  0.04638  0.35222  0.53762  1.0000
  C   C85       1.0  0.00848  0.47329  0.33695  1.0000
  C   C86       1.0  0.00428  0.48670  0.31041  1.0000
  C   C87       1.0  0.99594  0.51335  0.31038  1.0000
  C   C88       1.0  0.99176  0.52672  0.33691  1.0000
  C   C89       1.0  0.95380  0.64797  0.47565  1.0000
  C   C90       1.0  0.94656  0.67110  0.49093  1.0000
  C   C91       1.0  0.94656  0.67110  0.52149  1.0000
  C   C92       1.0  0.95379  0.64799  0.53692  1.0000
  C   C93       1.0  0.00844  0.47343  0.67637  1.0000
  C   C94       1.0  0.00426  0.48677  0.70284  1.0000
  C   C95       1.0  0.99593  0.51339  0.70279  1.0000
  C   C96       1.0  0.99173  0.52680  0.67624  1.0000
  H   H25       1.0  0.04643  0.35207  0.45368  1.0000
  O   O9        1.0  0.06071  0.30646  0.47699  1.0000
  O   O10       1.0  0.06069  0.30653  0.53730  1.0000
  H   H26       1.0  0.04640  0.35218  0.56028  1.0000
  H   H27       1.0  0.01466  0.45355  0.33692  1.0000
  O   O11       1.0  0.00833  0.47377  0.28453  1.0000
  O   O12       1.0  0.99187  0.52634  0.28448  1.0000
  H   H28       1.0  0.98558  0.54646  0.33681  1.0000
  H   H29       1.0  0.95378  0.64803  0.45303  1.0000
  O   O13       1.0  0.93949  0.69366  0.47598  1.0000
  O   O14       1.0  0.93950  0.69366  0.53623  1.0000
  H   H30       1.0  0.95377  0.64804  0.55955  1.0000
  H   H31       1.0  0.01461  0.45373  0.67647  1.0000
  O   O15       1.0  0.00832  0.47381  0.72876  1.0000
  O   O16       1.0  0.99188  0.52631  0.72863  1.0000
  H   H32       1.0  0.98556  0.54653  0.67626  1.0000
  Ni  Ni2       1.0  0.00010  0.50010  0.50664  1.0000
  C   C97       1.0  0.47290  0.00860  0.39016  1.0000
  C   C98       1.0  0.48651  0.00434  0.36357  1.0000
  C   C99       1.0  0.51346  0.99591  0.36355  1.0000
  C   C100      1.0  0.52705  0.99165  0.39012  1.0000
  C   C101      1.0  0.51296  0.99606  0.41598  1.0000
  C   C102      1.0  0.48697  0.00420  0.41600  1.0000
  C   C103      1.0  0.47881  0.00675  0.44506  1.0000
  N   N17       1.0  0.50001  0.00010  0.46333  1.0000
  C   C104      1.0  0.52117  0.99349  0.44503  1.0000
  N   N18       1.0  0.54635  0.98561  0.45350  1.0000
  C   C105      1.0  0.55377  0.98329  0.48233  1.0000
  N   N19       1.0  0.53786  0.98827  0.50664  1.0000
  C   C106      1.0  0.55380  0.98328  0.53090  1.0000
  C   C107      1.0  0.57911  0.97536  0.52146  1.0000
  C   C108      1.0  0.57911  0.97535  0.49167  1.0000
  N   N20       1.0  0.50019  0.00010  0.54996  1.0000
  C   C109      1.0  0.52136  0.99343  0.56819  1.0000
  N   N21       1.0  0.54645  0.98558  0.55971  1.0000
  C   C110      1.0  0.51319  0.99599  0.59726  1.0000
  C   C111      1.0  0.48722  0.00412  0.59731  1.0000
  C   C112      1.0  0.47903  0.00668  0.56827  1.0000
  C   C113      1.0  0.60162  0.96831  0.47547  1.0000
  C   C114      1.0  0.62479  0.96105  0.49094  1.0000
  C   C115      1.0  0.62480  0.96105  0.52183  1.0000
  C   C116      1.0  0.60165  0.96830  0.53750  1.0000
  C   C117      1.0  0.47315  0.00853  0.62318  1.0000
  C   C118      1.0  0.48670  0.00429  0.64974  1.0000
  C   C119      1.0  0.51362  0.99586  0.64967  1.0000
  C   C120      1.0  0.52723  0.99160  0.62307  1.0000
  N   N22       1.0  0.46233  0.01191  0.50665  1.0000
  C   C121      1.0  0.44644  0.01689  0.53096  1.0000
  N   N23       1.0  0.45389  0.01456  0.55981  1.0000
  C   C122      1.0  0.42109  0.02482  0.52163  1.0000
  C   C123      1.0  0.42107  0.02483  0.49182  1.0000
  C   C124      1.0  0.44637  0.01691  0.48238  1.0000
  C   C125      1.0  0.39851  0.03189  0.47576  1.0000
  C   C126      1.0  0.37534  0.03915  0.49142  1.0000
  C   C127      1.0  0.37538  0.03913  0.52234  1.0000
  C   C128      1.0  0.39859  0.03187  0.53784  1.0000
  N   N24       1.0  0.45371  0.01461  0.45352  1.0000
  H   H33       1.0  0.45317  0.01478  0.39050  1.0000
  H   H34       1.0  0.54680  0.98547  0.39042  1.0000
  H   H35       1.0  0.60133  0.96840  0.45283  1.0000
  H   H36       1.0  0.60139  0.96838  0.56013  1.0000
  H   H37       1.0  0.45343  0.01470  0.62290  1.0000
  H   H38       1.0  0.54696  0.98542  0.62271  1.0000
  H   H39       1.0  0.39875  0.03182  0.45311  1.0000
  H   H40       1.0  0.39889  0.03177  0.56049  1.0000
  C   C129      1.0  0.35214  0.04641  0.47631  1.0000
  C   C130      1.0  0.32904  0.05364  0.49177  1.0000
  C   C131      1.0  0.32907  0.05363  0.52235  1.0000
  C   C132      1.0  0.35222  0.04638  0.53762  1.0000
  C   C133      1.0  0.47329  0.00848  0.33695  1.0000
  C   C134      1.0  0.48670  0.00428  0.31041  1.0000
  C   C135      1.0  0.51335  0.99594  0.31038  1.0000
  C   C136      1.0  0.52672  0.99176  0.33691  1.0000
  C   C137      1.0  0.64797  0.95380  0.47565  1.0000
  C   C138      1.0  0.67110  0.94656  0.49093  1.0000
  C   C139      1.0  0.67110  0.94656  0.52149  1.0000
  C   C140      1.0  0.64799  0.95379  0.53692  1.0000
  C   C141      1.0  0.47343  0.00844  0.67637  1.0000
  C   C142      1.0  0.48677  0.00426  0.70284  1.0000
  C   C143      1.0  0.51339  0.99593  0.70279  1.0000
  C   C144      1.0  0.52680  0.99173  0.67624  1.0000
  H   H41       1.0  0.35207  0.04643  0.45368  1.0000
  O   O17       1.0  0.30646  0.06071  0.47699  1.0000
  O   O18       1.0  0.30653  0.06069  0.53730  1.0000
  H   H42       1.0  0.35218  0.04640  0.56028  1.0000
  H   H43       1.0  0.45355  0.01466  0.33692  1.0000
  O   O19       1.0  0.47377  0.00833  0.28453  1.0000
  O   O20       1.0  0.52634  0.99187  0.28448  1.0000
  H   H44       1.0  0.54646  0.98558  0.33681  1.0000
  H   H45       1.0  0.64803  0.95378  0.45303  1.0000
  O   O21       1.0  0.69366  0.93949  0.47598  1.0000
  O   O22       1.0  0.69366  0.93950  0.53623  1.0000
  H   H46       1.0  0.64804  0.95377  0.55955  1.0000
  H   H47       1.0  0.45373  0.01461  0.67647  1.0000
  O   O23       1.0  0.47381  0.00832  0.72876  1.0000
  O   O24       1.0  0.52631  0.99188  0.72863  1.0000
  H   H48       1.0  0.54653  0.98556  0.67626  1.0000
  Ni  Ni3       1.0  0.50010  0.00010  0.50664  1.0000
  C   C145      1.0  0.46824  0.89852  0.97544  1.0000
  C   C146      1.0  0.46099  0.87537  0.99105  1.0000
  C   C147      1.0  0.46101  0.87542  0.02197  1.0000
  C   C148      1.0  0.46827  0.89861  0.03756  1.0000
  C   C149      1.0  0.47531  0.92112  0.02140  1.0000
  C   C150      1.0  0.47530  0.92108  0.99158  1.0000
  C   C151      1.0  0.48322  0.94639  0.98222  1.0000
  N   N25       1.0  0.48822  0.96237  0.00654  1.0000
  C   C152      1.0  0.48324  0.94646  0.03081  1.0000
  N   N26       1.0  0.48557  0.95391  0.05970  1.0000
  C   C153      1.0  0.49345  0.97905  0.06821  1.0000
  N   N27       1.0  0.50007  0.00010  0.04995  1.0000
  C   C154      1.0  0.50670  0.02139  0.06824  1.0000
  C   C155      1.0  0.50414  0.01322  0.09727  1.0000
  C   C156      1.0  0.49601  0.98726  0.09728  1.0000
  N   N28       1.0  0.51186  0.03788  0.00674  1.0000
  C   C157      1.0  0.51685  0.05382  0.03102  1.0000
  N   N29       1.0  0.51456  0.04649  0.05981  1.0000
  C   C158      1.0  0.52478  0.07914  0.02165  1.0000
  C   C159      1.0  0.52477  0.07912  0.99187  1.0000
  C   C160      1.0  0.51684  0.05379  0.98247  1.0000
  C   C161      1.0  0.49161  0.97318  0.12311  1.0000
  C   C162      1.0  0.49585  0.98672  0.14968  1.0000
  C   C163      1.0  0.50428  0.01365  0.14970  1.0000
  C   C164      1.0  0.50854  0.02726  0.12314  1.0000
  C   C165      1.0  0.53182  0.10164  0.97572  1.0000
  C   C166      1.0  0.53908  0.12482  0.99126  1.0000
  C   C167      1.0  0.53908  0.12483  0.02215  1.0000
  C   C168      1.0  0.53183  0.10168  0.03776  1.0000
  N   N30       1.0  0.50002  0.00010  0.96331  1.0000
  C   C169      1.0  0.50664  0.02119  0.94508  1.0000
  N   N31       1.0  0.51452  0.04636  0.95363  1.0000
  C   C170      1.0  0.50407  0.01300  0.91600  1.0000
  C   C171      1.0  0.49594  0.98701  0.91597  1.0000
  C   C172      1.0  0.49338  0.97884  0.94500  1.0000
  C   C173      1.0  0.49154  0.97296  0.89009  1.0000
  C   C174      1.0  0.49580  0.98656  0.86352  1.0000
  C   C175      1.0  0.50423  0.01351  0.86357  1.0000
  C   C176      1.0  0.50848  0.02708  0.89019  1.0000
  N   N32       1.0  0.48551  0.95371  0.95342  1.0000
  H   H49       1.0  0.46831  0.89877  0.95281  1.0000
  H   H50       1.0  0.46836  0.89892  0.06021  1.0000
  H   H51       1.0  0.48543  0.95345  0.12277  1.0000
  H   H52       1.0  0.51471  0.04698  0.12284  1.0000
  H   H53       1.0  0.53173  0.10135  0.95310  1.0000
  H   H54       1.0  0.53175  0.10140  0.06039  1.0000
  H   H55       1.0  0.48536  0.95323  0.89038  1.0000
  H   H56       1.0  0.51466  0.04683  0.89054  1.0000
  C   C177      1.0  0.49166  0.97334  0.83691  1.0000
  C   C178      1.0  0.49586  0.98676  0.81040  1.0000
  C   C179      1.0  0.50420  0.01341  0.81044  1.0000
  C   C180      1.0  0.50839  0.02678  0.83700  1.0000
  C   C181      1.0  0.45372  0.85214  0.97588  1.0000
  C   C182      1.0  0.44648  0.82903  0.99127  1.0000
  C   C183      1.0  0.44650  0.82908  0.02184  1.0000
  C   C184      1.0  0.45374  0.85223  0.03718  1.0000
  C   C185      1.0  0.49169  0.97345  0.17628  1.0000
  C   C186      1.0  0.49588  0.98682  0.20280  1.0000
  C   C187      1.0  0.50422  0.01346  0.20280  1.0000
  C   C188      1.0  0.50841  0.02686  0.17629  1.0000
  C   C189      1.0  0.54634  0.14801  0.97604  1.0000
  C   C190      1.0  0.55357  0.17111  0.99135  1.0000
  C   C191      1.0  0.55358  0.17113  0.02189  1.0000
  C   C192      1.0  0.54634  0.14802  0.03727  1.0000
  H   H57       1.0  0.48548  0.95361  0.83683  1.0000
  O   O25       1.0  0.49181  0.97382  0.78450  1.0000
  O   O26       1.0  0.50827  0.02640  0.78458  1.0000
  H   H58       1.0  0.51457  0.04653  0.83695  1.0000
  H   H59       1.0  0.45370  0.85207  0.95324  1.0000
  O   O27       1.0  0.43941  0.80645  0.97643  1.0000
  O   O28       1.0  0.43944  0.80652  0.03675  1.0000
  H   H60       1.0  0.45373  0.85219  0.05982  1.0000
  H   H61       1.0  0.48552  0.95373  0.17634  1.0000
  O   O29       1.0  0.49182  0.97384  0.22868  1.0000
  O   O30       1.0  0.50826  0.02636  0.22868  1.0000
  H   H62       1.0  0.51459  0.04658  0.17636  1.0000
  H   H63       1.0  0.54635  0.14805  0.95344  1.0000
  O   O31       1.0  0.56063  0.19367  0.97648  1.0000
  O   O32       1.0  0.56064  0.19368  0.03670  1.0000
  H   H64       1.0  0.54636  0.14809  0.05990  1.0000
  Ni  Ni4       1.0  0.50004  0.00010  0.00664  1.0000
  C   C193      1.0  0.36099  0.59942  0.00658  1.0000
  C   C194      1.0  0.35374  0.62650  0.00658  1.0000
  C   C195      1.0  0.37357  0.64634  0.00658  1.0000
  C   C196      1.0  0.40066  0.63909  0.00658  1.0000
  C   C197      1.0  0.40793  0.61199  0.00657  1.0000
  C   C198      1.0  0.38809  0.59215  0.00657  1.0000
  C   C199      1.0  0.42050  0.65892  0.00658  1.0000
  C   C200      1.0  0.41324  0.68601  0.00658  1.0000
  C   C201      1.0  0.38614  0.69328  0.00658  1.0000
  C   C202      1.0  0.36631  0.67344  0.00658  1.0000
  C   C203      1.0  0.34116  0.57958  0.00658  1.0000
  C   C204      1.0  0.31407  0.58683  0.00658  1.0000
  C   C205      1.0  0.30680  0.61393  0.00658  1.0000
  C   C206      1.0  0.32664  0.63377  0.00658  1.0000
  C   C207      1.0  0.39536  0.56505  0.00657  1.0000
  C   C208      1.0  0.42245  0.55780  0.00657  1.0000
  C   C209      1.0  0.44228  0.57763  0.00657  1.0000
  C   C210      1.0  0.43503  0.60472  0.00657  1.0000
  C   C211      1.0  0.46938  0.57037  0.00657  1.0000
  C   C212      1.0  0.47665  0.54327  0.00657  1.0000
  C   C213      1.0  0.45681  0.52343  0.00657  1.0000
  C   C214      1.0  0.42971  0.53070  0.00657  1.0000
  C   C215      1.0  0.37888  0.72038  0.00658  1.0000
  C   C216      1.0  0.39871  0.74021  0.00658  1.0000
  C   C217      1.0  0.42581  0.73295  0.00658  1.0000
  C   C218      1.0  0.43308  0.70585  0.00658  1.0000
  H   H65       1.0  0.44057  0.65354  0.00657  1.0000
  H   H66       1.0  0.34625  0.67881  0.00658  1.0000
  H   H67       1.0  0.34654  0.55951  0.00657  1.0000
  H   H68       1.0  0.32127  0.65382  0.00658  1.0000
  H   H69       1.0  0.38068  0.55037  0.00657  1.0000
  H   H70       1.0  0.44971  0.61941  0.00657  1.0000
  H   H71       1.0  0.48407  0.58505  0.00657  1.0000
  O   O33       1.0  0.50304  0.53620  0.00657  1.0000
  O   O34       1.0  0.46389  0.49704  0.00657  1.0000
  H   H72       1.0  0.41503  0.51601  0.00657  1.0000
  H   H73       1.0  0.35882  0.72575  0.00658  1.0000
  O   O35       1.0  0.39164  0.76660  0.00658  1.0000
  O   O36       1.0  0.44513  0.75227  0.00658  1.0000
  H   H74       1.0  0.45314  0.70048  0.00658  1.0000
  C   C219      1.0  0.27970  0.62120  0.00658  1.0000
  C   C220      1.0  0.25987  0.60136  0.00658  1.0000
  C   C221      1.0  0.26713  0.57426  0.00658  1.0000
  C   C222      1.0  0.29423  0.56700  0.00658  1.0000
  H   H75       1.0  0.27433  0.64125  0.00658  1.0000
  O   O37       1.0  0.23347  0.60843  0.00658  1.0000
  O   O38       1.0  0.24781  0.55494  0.00658  1.0000
  H   H76       1.0  0.29961  0.54694  0.00658  1.0000
  C   C223      1.0  0.86102  0.90070  0.50563  1.0000
  C   C224      1.0  0.85377  0.87361  0.50558  1.0000
  C   C225      1.0  0.87361  0.85378  0.50558  1.0000
  C   C226      1.0  0.90069  0.86103  0.50563  1.0000
  C   C227      1.0  0.90796  0.88813  0.50568  1.0000
  C   C228      1.0  0.88812  0.90796  0.50568  1.0000
  C   C229      1.0  0.92053  0.84119  0.50563  1.0000
  C   C230      1.0  0.91328  0.81410  0.50558  1.0000
  C   C231      1.0  0.88618  0.80684  0.50553  1.0000
  C   C232      1.0  0.86634  0.82668  0.50553  1.0000
  C   C233      1.0  0.84118  0.92054  0.50563  1.0000
  C   C234      1.0  0.81410  0.91329  0.50558  1.0000
  C   C235      1.0  0.80683  0.88618  0.50553  1.0000
  C   C236      1.0  0.82667  0.86635  0.50553  1.0000
  C   C237      1.0  0.89539  0.93506  0.50572  1.0000
  C   C238      1.0  0.92247  0.94232  0.50577  1.0000
  C   C239      1.0  0.94231  0.92248  0.50577  1.0000
  C   C240      1.0  0.93506  0.89539  0.50572  1.0000
  C   C241      1.0  0.96941  0.92974  0.50582  1.0000
  C   C242      1.0  0.97667  0.95684  0.50587  1.0000
  C   C243      1.0  0.95684  0.97668  0.50587  1.0000
  C   C244      1.0  0.92974  0.96942  0.50582  1.0000
  C   C245      1.0  0.87891  0.77974  0.50548  1.0000
  C   C246      1.0  0.89875  0.75990  0.50548  1.0000
  C   C247      1.0  0.92585  0.76717  0.50553  1.0000
  C   C248      1.0  0.93312  0.79427  0.50558  1.0000
  H   H77       1.0  0.94060  0.84657  0.50566  1.0000
  H   H78       1.0  0.84629  0.82130  0.50549  1.0000
  H   H79       1.0  0.84657  0.94060  0.50566  1.0000
  H   H80       1.0  0.82130  0.84629  0.50549  1.0000
  H   H81       1.0  0.88070  0.94975  0.50572  1.0000
  H   H82       1.0  0.94974  0.88071  0.50572  1.0000
  H   H83       1.0  0.98409  0.91506  0.50582  1.0000
  O   O39       1.0  0.00307  0.96391  0.50592  1.0000
  O   O40       1.0  0.96391  0.00307  0.50592  1.0000
  H   H84       1.0  0.91505  0.98410  0.50582  1.0000
  H   H85       1.0  0.85886  0.77437  0.50544  1.0000
  O   O41       1.0  0.89168  0.73351  0.50543  1.0000
  O   O42       1.0  0.94517  0.74784  0.50553  1.0000
  H   H86       1.0  0.95317  0.79964  0.50561  1.0000
  C   C249      1.0  0.77973  0.87892  0.50548  1.0000
  C   C250      1.0  0.75990  0.89876  0.50548  1.0000
  C   C251      1.0  0.76716  0.92586  0.50553  1.0000
  C   C252      1.0  0.79426  0.93312  0.50558  1.0000
  H   H87       1.0  0.77436  0.85887  0.50544  1.0000
  O   O43       1.0  0.73350  0.89169  0.50543  1.0000
  O   O44       1.0  0.74784  0.94518  0.50553  1.0000
  H   H88       1.0  0.79963  0.95318  0.50561  1.0000
  C   C253      1.0  0.59942  0.36099  0.00658  1.0000
  C   C254      1.0  0.62650  0.35374  0.00658  1.0000
  C   C255      1.0  0.64634  0.37357  0.00658  1.0000
  C   C256      1.0  0.63909  0.40066  0.00658  1.0000
  C   C257      1.0  0.61199  0.40793  0.00657  1.0000
  C   C258      1.0  0.59215  0.38809  0.00657  1.0000
  C   C259      1.0  0.65892  0.42050  0.00658  1.0000
  C   C260      1.0  0.68601  0.41324  0.00658  1.0000
  C   C261      1.0  0.69328  0.38614  0.00658  1.0000
  C   C262      1.0  0.67344  0.36631  0.00658  1.0000
  C   C263      1.0  0.57958  0.34116  0.00658  1.0000
  C   C264      1.0  0.58683  0.31407  0.00658  1.0000
  C   C265      1.0  0.61393  0.30680  0.00658  1.0000
  C   C266      1.0  0.63377  0.32664  0.00658  1.0000
  C   C267      1.0  0.56505  0.39536  0.00657  1.0000
  C   C268      1.0  0.55780  0.42245  0.00657  1.0000
  C   C269      1.0  0.57763  0.44228  0.00657  1.0000
  C   C270      1.0  0.60472  0.43503  0.00657  1.0000
  C   C271      1.0  0.57037  0.46938  0.00657  1.0000
  C   C272      1.0  0.54327  0.47665  0.00657  1.0000
  C   C273      1.0  0.52343  0.45681  0.00657  1.0000
  C   C274      1.0  0.53070  0.42971  0.00657  1.0000
  C   C275      1.0  0.72038  0.37888  0.00658  1.0000
  C   C276      1.0  0.74021  0.39871  0.00658  1.0000
  C   C277      1.0  0.73295  0.42581  0.00658  1.0000
  C   C278      1.0  0.70585  0.43308  0.00658  1.0000
  H   H89       1.0  0.65354  0.44057  0.00657  1.0000
  H   H90       1.0  0.67881  0.34625  0.00658  1.0000
  H   H91       1.0  0.55951  0.34654  0.00657  1.0000
  H   H92       1.0  0.65382  0.32127  0.00658  1.0000
  H   H93       1.0  0.55037  0.38068  0.00657  1.0000
  H   H94       1.0  0.61941  0.44971  0.00657  1.0000
  H   H95       1.0  0.58505  0.48407  0.00657  1.0000
  O   O45       1.0  0.53620  0.50304  0.00657  1.0000
  O   O46       1.0  0.49704  0.46389  0.00657  1.0000
  H   H96       1.0  0.51601  0.41503  0.00657  1.0000
  H   H97       1.0  0.72575  0.35882  0.00658  1.0000
  O   O47       1.0  0.76660  0.39164  0.00658  1.0000
  O   O48       1.0  0.75227  0.44513  0.00658  1.0000
  H   H98       1.0  0.70048  0.45314  0.00658  1.0000
  C   C279      1.0  0.62120  0.27970  0.00658  1.0000
  C   C280      1.0  0.60136  0.25987  0.00658  1.0000
  C   C281      1.0  0.57426  0.26713  0.00658  1.0000
  C   C282      1.0  0.56700  0.29423  0.00658  1.0000
  H   H99       1.0  0.64125  0.27433  0.00658  1.0000
  O   O49       1.0  0.60843  0.23347  0.00658  1.0000
  O   O50       1.0  0.55494  0.24781  0.00658  1.0000
  H   H100      1.0  0.54694  0.29961  0.00658  1.0000
  C   C283      1.0  0.09945  0.13913  0.50766  1.0000
  C   C284      1.0  0.12654  0.14638  0.50771  1.0000
  C   C285      1.0  0.14637  0.12654  0.50771  1.0000
  C   C286      1.0  0.13912  0.09946  0.50766  1.0000
  C   C287      1.0  0.11202  0.09219  0.50762  1.0000
  C   C288      1.0  0.09219  0.11203  0.50762  1.0000
  C   C289      1.0  0.15896  0.07962  0.50766  1.0000
  C   C290      1.0  0.18605  0.08687  0.50771  1.0000
  C   C291      1.0  0.19331  0.11397  0.50776  1.0000
  C   C292      1.0  0.17348  0.13381  0.50776  1.0000
  C   C293      1.0  0.07961  0.15897  0.50766  1.0000
  C   C294      1.0  0.08687  0.18605  0.50771  1.0000
  C   C295      1.0  0.11397  0.19332  0.50776  1.0000
  C   C296      1.0  0.13380  0.17348  0.50776  1.0000
  C   C297      1.0  0.06509  0.10477  0.50757  1.0000
  C   C298      1.0  0.05783  0.07768  0.50752  1.0000
  C   C299      1.0  0.07767  0.05784  0.50752  1.0000
  C   C300      1.0  0.10476  0.06509  0.50757  1.0000
  C   C301      1.0  0.07041  0.03074  0.50748  1.0000
  C   C302      1.0  0.04331  0.02348  0.50743  1.0000
  C   C303      1.0  0.02347  0.04331  0.50743  1.0000
  C   C304      1.0  0.03073  0.07041  0.50748  1.0000
  C   C305      1.0  0.22041  0.12124  0.50780  1.0000
  C   C306      1.0  0.24025  0.10140  0.50780  1.0000
  C   C307      1.0  0.23298  0.07430  0.50776  1.0000
  C   C308      1.0  0.20588  0.06703  0.50771  1.0000
  H   H101      1.0  0.15358  0.05955  0.50763  1.0000
  H   H102      1.0  0.17885  0.15386  0.50779  1.0000
  H   H103      1.0  0.05955  0.15358  0.50763  1.0000
  H   H104      1.0  0.15386  0.17885  0.50779  1.0000
  H   H105      1.0  0.05040  0.11945  0.50757  1.0000
  H   H106      1.0  0.11944  0.05041  0.50757  1.0000
  H   H107      1.0  0.08509  0.01606  0.50748  1.0000
  O   O51       1.0  0.03624  0.99708  0.50739  1.0000
  O   O52       1.0  0.99708  0.03624  0.50739  1.0000
  H   H108      1.0  0.01605  0.08510  0.50748  1.0000
  H   H109      1.0  0.22578  0.14129  0.50784  1.0000
  O   O53       1.0  0.26664  0.10847  0.50785  1.0000
  O   O54       1.0  0.25231  0.05498  0.50776  1.0000
  H   H110      1.0  0.20051  0.04698  0.50767  1.0000
  C   C309      1.0  0.12123  0.22042  0.50780  1.0000
  C   C310      1.0  0.10139  0.24025  0.50780  1.0000
  C   C311      1.0  0.07429  0.23299  0.50776  1.0000
  C   C312      1.0  0.06703  0.20589  0.50771  1.0000
  H   H111      1.0  0.14129  0.22579  0.50784  1.0000
  O   O55       1.0  0.10846  0.26665  0.50785  1.0000
  O   O56       1.0  0.05497  0.25231  0.50776  1.0000
  H   H112      1.0  0.04697  0.20052  0.50767  1.0000
  Cu  Cu1       1.0  0.50004  0.50004  0.00657  1.0000
  Cu  Cu2       1.0  0.00010  0.00010  0.50665  1.0000
  Zn  Zn1       1.0  0.21719  0.57116  0.00658  1.0000
  Zn  Zn2       1.0  0.92897  0.71717  0.50580  1.0000
  Zn  Zn3       1.0  0.78294  0.42891  0.00658  1.0000
  Zn  Zn4       1.0  0.07122  0.28298  0.50747  1.0000
  Zn  Zn5       1.0  0.71717  0.92897  0.50580  1.0000
  Zn  Zn6       1.0  0.57116  0.21719  0.00658  1.0000
  Zn  Zn7       1.0  0.28298  0.07120  0.50747  1.0000
  Zn  Zn8       1.0  0.42891  0.78294  0.00658  1.0000
  Zn  Zn9       1.0  0.00010  0.50005  0.25660  1.0000
  Zn  Zn10      1.0  0.00010  0.50005  0.75662  1.0000
  Zn  Zn11      1.0  0.50005  0.00010  0.25660  1.0000
  Zn  Zn12      1.0  0.50005  0.00010  0.75662  1.0000
