data_image0
_chemical_formula_structural       C7NCNCNC3NCNC11NCNC7NHO2H2O2H2O2H2O2HNiC7NCNCNC3NCNC11NCNC7NHO2H2O2H2O2H2O2HNiC7NCNCNC3NCNC11NCNC7NHO2H2O2H2O2H2O2HNiC7NCNCNC3NCNC11NCNC7NHO2H2O2H2O2H2O2HNiC18HO2H2O2H2O2HC18HO2H2O2H2O2HC18HO2H2O2H2O2HC18HO2H2O2H2O2HCu2Zn12
_chemical_formula_sum              "C200 N32 H56 O56 Ni4 Cu2 Zn12"
_cell_length_a       38.911
_cell_length_b       38.9109
_cell_length_c       38.4796
_cell_angle_alpha    90.0027
_cell_angle_beta     90.0027
_cell_angle_gamma    89.9991

_space_group_name_H-M_alt    "P 1"
_space_group_IT_number       1

loop_
  _space_group_symop_operation_xyz
  'x, y, z'

loop_
  _atom_site_type_symbol
  _atom_site_label
  _atom_site_symmetry_multiplicity
  _atom_site_fract_x
  _atom_site_fract_y
  _atom_site_fract_z
  _atom_site_occupancy
  C   C1        1.0  0.85803  0.45944  0.04498  1.0000
  C   C2        1.0  0.82497  0.45012  0.02467  1.0000
  C   C3        1.0  0.82493  0.45024  0.98423  1.0000
  C   C4        1.0  0.85795  0.45969  0.96391  1.0000
  C   C5        1.0  0.89001  0.46874  0.98510  1.0000
  C   C6        1.0  0.89005  0.46859  0.02378  1.0000
  C   C7        1.0  0.92607  0.47879  0.03586  1.0000
  N   N1        1.0  0.94932  0.48553  0.00444  1.0000
  C   C8        1.0  0.92600  0.47902  0.97301  1.0000
  N   N2        1.0  0.93505  0.48177  0.93595  1.0000
  C   C9        1.0  0.97031  0.49178  0.92638  1.0000
  N   N3        1.0  0.00010  0.50017  0.95087  1.0000
  C   C10       1.0  0.03014  0.50862  0.92639  1.0000
  C   C11       1.0  0.01862  0.50546  0.88854  1.0000
  C   C12       1.0  0.98181  0.49508  0.88853  1.0000
  N   N4        1.0  0.05120  0.51459  0.00443  1.0000
  C   C13       1.0  0.07452  0.52112  0.97301  1.0000
  N   N5        1.0  0.06544  0.51848  0.93595  1.0000
  C   C14       1.0  0.11051  0.53143  0.98510  1.0000
  C   C15       1.0  0.11047  0.53157  0.02378  1.0000
  C   C16       1.0  0.07445  0.52136  0.03586  1.0000
  C   C17       1.0  0.96164  0.48940  0.85483  1.0000
  C   C18       1.0  0.98098  0.49490  0.82012  1.0000
  C   C19       1.0  0.01945  0.50582  0.82013  1.0000
  C   C20       1.0  0.03879  0.51121  0.85487  1.0000
  C   C21       1.0  0.14249  0.54074  0.04498  1.0000
  C   C22       1.0  0.17554  0.55003  0.02467  1.0000
  C   C23       1.0  0.17558  0.54992  0.98423  1.0000
  C   C24       1.0  0.14257  0.54048  0.96391  1.0000
  N   N6        1.0  0.00010  0.50013  0.05799  1.0000
  C   C25       1.0  0.03009  0.50879  0.08248  1.0000
  N   N7        1.0  0.06531  0.51893  0.07292  1.0000
  C   C26       1.0  0.01861  0.50551  0.12033  1.0000
  C   C27       1.0  0.98187  0.49488  0.12034  1.0000
  C   C28       1.0  0.97040  0.49150  0.08248  1.0000
  C   C29       1.0  0.96172  0.48915  0.15403  1.0000
  C   C30       1.0  0.98101  0.49481  0.18875  1.0000
  C   C31       1.0  0.01945  0.50585  0.18873  1.0000
  C   C32       1.0  0.03876  0.51136  0.15400  1.0000
  N   N8        1.0  0.93520  0.48130  0.07292  1.0000
  H   H1        1.0  0.85848  0.45948  0.07226  1.0000
  O   O1        1.0  0.79711  0.44217  0.04148  1.0000
  O   O2        1.0  0.79704  0.44235  0.96743  1.0000
  H   H2        1.0  0.85834  0.45990  0.93662  1.0000
  H   H3        1.0  0.93568  0.48205  0.85526  1.0000
  O   O3        1.0  0.96501  0.49037  0.79080  1.0000
  O   O4        1.0  0.03544  0.51043  0.79084  1.0000
  H   H4        1.0  0.06475  0.51856  0.85532  1.0000
  H   H5        1.0  0.14204  0.54071  0.07226  1.0000
  O   O5        1.0  0.20342  0.55795  0.04148  1.0000
  O   O6        1.0  0.20347  0.55778  0.96743  1.0000
  H   H6        1.0  0.14217  0.54029  0.93663  1.0000
  H   H7        1.0  0.93579  0.48168  0.15359  1.0000
  O   O7        1.0  0.96502  0.49032  0.21806  1.0000
  O   O8        1.0  0.03542  0.51048  0.21804  1.0000
  H   H8        1.0  0.06468  0.51883  0.15355  1.0000
  Ni  Ni1       1.0  0.00010  0.50005  0.00444  1.0000
  C   C33       1.0  0.01096  0.46163  0.65402  1.0000
  C   C34       1.0  0.00554  0.48097  0.68874  1.0000
  C   C35       1.0  0.99472  0.51947  0.68875  1.0000
  C   C36       1.0  0.98928  0.53881  0.65402  1.0000
  C   C37       1.0  0.99494  0.51863  0.62034  1.0000
  C   C38       1.0  0.00526  0.48181  0.62033  1.0000
  C   C39       1.0  0.00849  0.47030  0.58248  1.0000
  N   N9        1.0  0.00010  0.50022  0.55800  1.0000
  C   C40       1.0  0.99171  0.53015  0.58248  1.0000
  N   N10       1.0  0.98184  0.56544  0.57292  1.0000
  C   C41       1.0  0.97923  0.57454  0.53586  1.0000
  N   N11       1.0  0.98574  0.55121  0.50443  1.0000
  C   C42       1.0  0.97907  0.57448  0.47301  1.0000
  C   C43       1.0  0.96893  0.61052  0.48509  1.0000
  C   C44       1.0  0.96902  0.61056  0.52376  1.0000
  N   N12       1.0  0.00010  0.50024  0.45087  1.0000
  C   C45       1.0  0.99157  0.53010  0.42638  1.0000
  N   N13       1.0  0.98149  0.56534  0.43594  1.0000
  C   C46       1.0  0.99490  0.51862  0.38852  1.0000
  C   C47       1.0  0.00551  0.48188  0.38853  1.0000
  C   C48       1.0  0.00882  0.47040  0.42638  1.0000
  C   C49       1.0  0.95996  0.64262  0.54494  1.0000
  C   C50       1.0  0.95056  0.67564  0.52461  1.0000
  C   C51       1.0  0.95054  0.67562  0.48417  1.0000
  C   C52       1.0  0.95984  0.64255  0.46387  1.0000
  C   C53       1.0  0.01130  0.46173  0.35485  1.0000
  C   C54       1.0  0.00571  0.48102  0.32012  1.0000
  C   C55       1.0  0.99465  0.51944  0.32012  1.0000
  C   C56       1.0  0.98911  0.53876  0.35484  1.0000
  N   N14       1.0  0.01469  0.44931  0.50443  1.0000
  C   C57       1.0  0.02147  0.42606  0.47301  1.0000
  N   N15       1.0  0.01900  0.43519  0.43595  1.0000
  C   C58       1.0  0.03171  0.39006  0.48508  1.0000
  C   C59       1.0  0.03154  0.39000  0.52376  1.0000
  C   C60       1.0  0.02119  0.42598  0.53585  1.0000
  C   C61       1.0  0.04066  0.35796  0.54495  1.0000
  C   C62       1.0  0.05021  0.32498  0.52461  1.0000
  C   C63       1.0  0.05031  0.32502  0.48418  1.0000
  C   C64       1.0  0.04092  0.35806  0.46387  1.0000
  N   N16       1.0  0.01843  0.43503  0.57291  1.0000
  H   H9        1.0  0.01826  0.43565  0.65357  1.0000
  O   O9        1.0  0.01006  0.46497  0.71805  1.0000
  O   O10       1.0  0.99022  0.53546  0.71806  1.0000
  H   H10       1.0  0.98198  0.56479  0.65358  1.0000
  H   H11       1.0  0.96011  0.64222  0.57223  1.0000
  O   O11       1.0  0.94264  0.70353  0.54140  1.0000
  O   O12       1.0  0.94267  0.70350  0.46735  1.0000
  H   H12       1.0  0.95993  0.64211  0.43659  1.0000
  H   H13       1.0  0.01878  0.43580  0.35529  1.0000
  O   O13       1.0  0.01025  0.46502  0.29082  1.0000
  O   O14       1.0  0.99004  0.53541  0.29081  1.0000
  H   H14       1.0  0.98165  0.56469  0.35528  1.0000
  H   H15       1.0  0.04046  0.35835  0.57223  1.0000
  O   O15       1.0  0.05820  0.29711  0.54141  1.0000
  O   O16       1.0  0.05832  0.29717  0.46736  1.0000
  H   H16       1.0  0.04089  0.35852  0.43659  1.0000
  Ni  Ni2       1.0  0.00010  0.50023  0.50444  1.0000
  C   C65       1.0  0.64250  0.95951  0.46386  1.0000
  C   C66       1.0  0.67556  0.95019  0.48417  1.0000
  C   C67       1.0  0.67559  0.95031  0.52461  1.0000
  C   C68       1.0  0.64258  0.95976  0.54493  1.0000
  C   C69       1.0  0.61052  0.96881  0.52374  1.0000
  C   C70       1.0  0.61047  0.96866  0.48506  1.0000
  C   C71       1.0  0.57446  0.97886  0.47298  1.0000
  N   N17       1.0  0.55120  0.98560  0.50440  1.0000
  C   C72       1.0  0.57453  0.97909  0.53583  1.0000
  N   N18       1.0  0.56547  0.98184  0.57289  1.0000
  C   C73       1.0  0.53021  0.99185  0.58246  1.0000
  N   N19       1.0  0.50029  0.00010  0.55797  1.0000
  C   C74       1.0  0.47039  0.00869  0.58245  1.0000
  C   C75       1.0  0.48191  0.00553  0.62031  1.0000
  C   C76       1.0  0.51872  0.99515  0.62032  1.0000
  N   N20       1.0  0.44932  0.01466  0.50441  1.0000
  C   C77       1.0  0.42600  0.02119  0.53583  1.0000
  N   N21       1.0  0.43508  0.01855  0.57289  1.0000
  C   C78       1.0  0.39001  0.03150  0.52374  1.0000
  C   C79       1.0  0.39006  0.03164  0.48507  1.0000
  C   C80       1.0  0.42607  0.02143  0.47299  1.0000
  C   C81       1.0  0.53888  0.98947  0.65401  1.0000
  C   C82       1.0  0.51954  0.99497  0.68873  1.0000
  C   C83       1.0  0.48107  0.00589  0.68871  1.0000
  C   C84       1.0  0.46174  0.01128  0.65398  1.0000
  C   C85       1.0  0.35804  0.04081  0.46387  1.0000
  C   C86       1.0  0.32498  0.05010  0.48418  1.0000
  C   C87       1.0  0.32495  0.04999  0.52461  1.0000
  C   C88       1.0  0.35796  0.04055  0.54493  1.0000
  N   N22       1.0  0.50028  0.00010  0.45085  1.0000
  C   C89       1.0  0.47043  0.00886  0.42636  1.0000
  N   N23       1.0  0.43522  0.01900  0.43593  1.0000
  C   C90       1.0  0.48192  0.00558  0.38851  1.0000
  C   C91       1.0  0.51865  0.99495  0.38850  1.0000
  C   C92       1.0  0.53013  0.99157  0.42636  1.0000
  C   C93       1.0  0.53881  0.98922  0.35481  1.0000
  C   C94       1.0  0.51951  0.99488  0.32009  1.0000
  C   C95       1.0  0.48108  0.00592  0.32011  1.0000
  C   C96       1.0  0.46177  0.01143  0.35484  1.0000
  N   N24       1.0  0.56533  0.98137  0.43592  1.0000
  H   H17       1.0  0.64205  0.95955  0.43657  1.0000
  O   O17       1.0  0.70342  0.94224  0.46736  1.0000
  O   O18       1.0  0.70349  0.94242  0.54141  1.0000
  H   H18       1.0  0.64218  0.95997  0.57221  1.0000
  H   H19       1.0  0.56484  0.98212  0.65358  1.0000
  O   O19       1.0  0.53552  0.99044  0.71804  1.0000
  O   O20       1.0  0.46509  0.01050  0.71801  1.0000
  H   H20       1.0  0.43578  0.01863  0.65352  1.0000
  H   H21       1.0  0.35849  0.04078  0.43658  1.0000
  O   O21       1.0  0.29710  0.05802  0.46737  1.0000
  O   O22       1.0  0.29705  0.05785  0.54142  1.0000
  H   H22       1.0  0.35835  0.04036  0.57222  1.0000
  H   H23       1.0  0.56474  0.98175  0.35525  1.0000
  O   O23       1.0  0.53550  0.99039  0.29078  1.0000
  O   O24       1.0  0.46510  0.01055  0.29081  1.0000
  H   H24       1.0  0.43584  0.01890  0.35530  1.0000
  Ni  Ni3       1.0  0.50026  0.00010  0.50441  1.0000
  C   C97       1.0  0.46004  0.85787  0.04496  1.0000
  C   C98       1.0  0.45056  0.82486  0.02465  1.0000
  C   C99       1.0  0.45044  0.82489  0.98421  1.0000
  C   C100      1.0  0.45978  0.85793  0.96389  1.0000
  C   C101      1.0  0.46896  0.88995  0.98508  1.0000
  C   C102      1.0  0.46911  0.88992  0.02376  1.0000
  C   C103      1.0  0.47940  0.92591  0.03584  1.0000
  N   N25       1.0  0.48591  0.94923  0.00442  1.0000
  C   C104      1.0  0.47916  0.92597  0.97299  1.0000
  N   N26       1.0  0.48159  0.93511  0.93593  1.0000
  C   C105      1.0  0.49164  0.97036  0.92636  1.0000
  N   N27       1.0  0.50026  0.00010  0.95085  1.0000
  C   C106      1.0  0.50882  0.03009  0.92637  1.0000
  C   C107      1.0  0.50544  0.01863  0.88852  1.0000
  C   C108      1.0  0.49489  0.98187  0.88851  1.0000
  N   N28       1.0  0.51483  0.05114  0.00441  1.0000
  C   C109      1.0  0.52155  0.07441  0.97299  1.0000
  N   N29       1.0  0.51901  0.06530  0.93593  1.0000
  C   C110      1.0  0.53173  0.11044  0.98508  1.0000
  C   C111      1.0  0.53159  0.11047  0.02376  1.0000
  C   C112      1.0  0.52130  0.07448  0.03584  1.0000
  C   C113      1.0  0.48910  0.96174  0.85481  1.0000
  C   C114      1.0  0.49460  0.98108  0.82010  1.0000
  C   C115      1.0  0.50557  0.01953  0.82011  1.0000
  C   C116      1.0  0.51116  0.03881  0.85485  1.0000
  C   C117      1.0  0.54064  0.14253  0.04496  1.0000
  C   C118      1.0  0.55014  0.17553  0.02465  1.0000
  C   C119      1.0  0.55026  0.17549  0.98421  1.0000
  C   C120      1.0  0.54090  0.14246  0.96389  1.0000
  N   N30       1.0  0.50030  0.00010  0.05797  1.0000
  C   C121      1.0  0.50865  0.03014  0.08246  1.0000
  N   N31       1.0  0.51856  0.06543  0.07290  1.0000
  C   C122      1.0  0.50539  0.01866  0.12031  1.0000
  C   C123      1.0  0.49509  0.98182  0.12032  1.0000
  C   C124      1.0  0.49192  0.97029  0.08246  1.0000
  C   C125      1.0  0.48935  0.96167  0.15401  1.0000
  C   C126      1.0  0.49470  0.98106  0.18873  1.0000
  C   C127      1.0  0.50554  0.01955  0.18871  1.0000
  C   C128      1.0  0.51103  0.03886  0.15398  1.0000
  N   N32       1.0  0.48207  0.93499  0.07290  1.0000
  H   H25       1.0  0.46024  0.85828  0.07224  1.0000
  O   O25       1.0  0.44265  0.79698  0.04146  1.0000
  O   O26       1.0  0.44246  0.79702  0.96741  1.0000
  H   H26       1.0  0.45981  0.85838  0.93660  1.0000
  H   H27       1.0  0.48168  0.93580  0.85524  1.0000
  O   O27       1.0  0.49005  0.96511  0.79078  1.0000
  O   O28       1.0  0.51007  0.03555  0.79082  1.0000
  H   H28       1.0  0.51858  0.06476  0.85530  1.0000
  H   H29       1.0  0.54043  0.14213  0.07224  1.0000
  O   O29       1.0  0.55808  0.20340  0.04146  1.0000
  O   O30       1.0  0.55825  0.20335  0.96741  1.0000
  H   H30       1.0  0.54086  0.14202  0.93661  1.0000
  H   H31       1.0  0.48206  0.93570  0.15357  1.0000
  O   O31       1.0  0.49010  0.96509  0.21804  1.0000
  O   O32       1.0  0.51001  0.03557  0.21802  1.0000
  H   H32       1.0  0.51832  0.06484  0.15353  1.0000
  Ni  Ni4       1.0  0.50038  0.00010  0.00442  1.0000
  C   C129      1.0  0.39878  0.57622  0.00446  1.0000
  C   C130      1.0  0.42423  0.60166  0.00446  1.0000
  C   C131      1.0  0.41491  0.63641  0.00446  1.0000
  C   C132      1.0  0.38016  0.64572  0.00445  1.0000
  C   C133      1.0  0.35472  0.62028  0.00446  1.0000
  C   C134      1.0  0.36403  0.58553  0.00446  1.0000
  C   C135      1.0  0.37085  0.68048  0.00445  1.0000
  C   C136      1.0  0.39629  0.70592  0.00445  1.0000
  C   C137      1.0  0.43104  0.69661  0.00445  1.0000
  C   C138      1.0  0.44035  0.66185  0.00445  1.0000
  C   C139      1.0  0.40810  0.54146  0.00446  1.0000
  C   C140      1.0  0.44285  0.53215  0.00446  1.0000
  C   C141      1.0  0.46829  0.55759  0.00446  1.0000
  C   C142      1.0  0.45898  0.59234  0.00446  1.0000
  C   C143      1.0  0.33859  0.56009  0.00446  1.0000
  C   C144      1.0  0.30384  0.56940  0.00446  1.0000
  C   C145      1.0  0.29452  0.60415  0.00446  1.0000
  C   C146      1.0  0.31996  0.62959  0.00445  1.0000
  H   H33       1.0  0.34478  0.68746  0.00445  1.0000
  O   O33       1.0  0.38790  0.73720  0.00445  1.0000
  O   O34       1.0  0.45394  0.71950  0.00445  1.0000
  H   H34       1.0  0.46642  0.65487  0.00445  1.0000
  H   H35       1.0  0.38902  0.52238  0.00446  1.0000
  O   O35       1.0  0.45123  0.50087  0.00446  1.0000
  O   O36       1.0  0.49957  0.54921  0.00446  1.0000
  H   H36       1.0  0.47806  0.61143  0.00446  1.0000
  H   H37       1.0  0.34557  0.53402  0.00446  1.0000
  O   O37       1.0  0.28094  0.54650  0.00446  1.0000
  O   O38       1.0  0.26324  0.61253  0.00445  1.0000
  H   H38       1.0  0.31298  0.65566  0.00445  1.0000
  C   C147      1.0  0.89888  0.92430  0.50435  1.0000
  C   C148      1.0  0.92433  0.89886  0.50435  1.0000
  C   C149      1.0  0.91501  0.86410  0.50435  1.0000
  C   C150      1.0  0.88026  0.85479  0.50435  1.0000
  C   C151      1.0  0.85482  0.88024  0.50435  1.0000
  C   C152      1.0  0.86413  0.91499  0.50435  1.0000
  C   C153      1.0  0.87095  0.82004  0.50436  1.0000
  C   C154      1.0  0.89639  0.79460  0.50436  1.0000
  C   C155      1.0  0.93114  0.80391  0.50436  1.0000
  C   C156      1.0  0.94045  0.83866  0.50435  1.0000
  C   C157      1.0  0.90820  0.95905  0.50435  1.0000
  C   C158      1.0  0.94295  0.96836  0.50435  1.0000
  C   C159      1.0  0.96839  0.94292  0.50435  1.0000
  C   C160      1.0  0.95908  0.90817  0.50435  1.0000
  C   C161      1.0  0.83869  0.94043  0.50435  1.0000
  C   C162      1.0  0.80394  0.93112  0.50435  1.0000
  C   C163      1.0  0.79462  0.89637  0.50436  1.0000
  C   C164      1.0  0.82006  0.87092  0.50436  1.0000
  H   H39       1.0  0.84488  0.81306  0.50436  1.0000
  O   O39       1.0  0.88801  0.76332  0.50436  1.0000
  O   O40       1.0  0.95404  0.78101  0.50436  1.0000
  H   H40       1.0  0.96652  0.84565  0.50435  1.0000
  H   H41       1.0  0.88912  0.97814  0.50435  1.0000
  O   O41       1.0  0.95133  0.99990  0.50434  1.0000
  O   O42       1.0  0.99990  0.95130  0.50435  1.0000
  H   H42       1.0  0.97816  0.88909  0.50435  1.0000
  H   H43       1.0  0.84567  0.96650  0.50435  1.0000
  O   O43       1.0  0.78104  0.95402  0.50435  1.0000
  O   O44       1.0  0.76334  0.88799  0.50436  1.0000
  H   H44       1.0  0.81308  0.84486  0.50436  1.0000
  C   C165      1.0  0.57620  0.39880  0.00446  1.0000
  C   C166      1.0  0.60164  0.42424  0.00446  1.0000
  C   C167      1.0  0.63639  0.41493  0.00446  1.0000
  C   C168      1.0  0.64571  0.38018  0.00446  1.0000
  C   C169      1.0  0.62026  0.35474  0.00445  1.0000
  C   C170      1.0  0.58551  0.36405  0.00446  1.0000
  C   C171      1.0  0.68046  0.37086  0.00445  1.0000
  C   C172      1.0  0.70590  0.39630  0.00446  1.0000
  C   C173      1.0  0.69659  0.43106  0.00446  1.0000
  C   C174      1.0  0.66184  0.44037  0.00446  1.0000
  C   C175      1.0  0.54144  0.40812  0.00446  1.0000
  C   C176      1.0  0.53213  0.44287  0.00446  1.0000
  C   C177      1.0  0.55757  0.46831  0.00446  1.0000
  C   C178      1.0  0.59233  0.45900  0.00446  1.0000
  C   C179      1.0  0.56007  0.33861  0.00445  1.0000
  C   C180      1.0  0.56938  0.30385  0.00445  1.0000
  C   C181      1.0  0.60413  0.29454  0.00445  1.0000
  C   C182      1.0  0.62958  0.31998  0.00445  1.0000
  H   H45       1.0  0.68744  0.34480  0.00445  1.0000
  O   O45       1.0  0.73718  0.38792  0.00446  1.0000
  O   O46       1.0  0.71949  0.45396  0.00446  1.0000
  H   H46       1.0  0.65485  0.46644  0.00446  1.0000
  H   H47       1.0  0.52236  0.38903  0.00446  1.0000
  O   O47       1.0  0.50085  0.45125  0.00446  1.0000
  O   O48       1.0  0.54919  0.49959  0.00446  1.0000
  H   H48       1.0  0.61141  0.47808  0.00446  1.0000
  H   H49       1.0  0.53400  0.34559  0.00446  1.0000
  O   O49       1.0  0.54648  0.28096  0.00445  1.0000
  O   O50       1.0  0.61252  0.26326  0.00445  1.0000
  H   H50       1.0  0.65564  0.31300  0.00445  1.0000
  C   C183      1.0  0.07629  0.10171  0.50437  1.0000
  C   C184      1.0  0.10174  0.07627  0.50437  1.0000
  C   C185      1.0  0.13649  0.08558  0.50437  1.0000
  C   C186      1.0  0.14580  0.12034  0.50437  1.0000
  C   C187      1.0  0.12036  0.14578  0.50437  1.0000
  C   C188      1.0  0.08560  0.13647  0.50437  1.0000
  C   C189      1.0  0.18055  0.12965  0.50438  1.0000
  C   C190      1.0  0.20600  0.10421  0.50438  1.0000
  C   C191      1.0  0.19668  0.06945  0.50437  1.0000
  C   C192      1.0  0.16193  0.06014  0.50437  1.0000
  C   C193      1.0  0.04154  0.09240  0.50437  1.0000
  C   C194      1.0  0.03223  0.05765  0.50436  1.0000
  C   C195      1.0  0.05767  0.03220  0.50436  1.0000
  C   C196      1.0  0.09242  0.04152  0.50436  1.0000
  C   C197      1.0  0.06016  0.16191  0.50437  1.0000
  C   C198      1.0  0.06947  0.19666  0.50438  1.0000
  C   C199      1.0  0.10423  0.20597  0.50438  1.0000
  C   C200      1.0  0.12967  0.18053  0.50438  1.0000
  H   H51       1.0  0.18754  0.15572  0.50438  1.0000
  O   O51       1.0  0.23727  0.11259  0.50438  1.0000
  O   O52       1.0  0.21958  0.04656  0.50437  1.0000
  H   H52       1.0  0.15495  0.03408  0.50437  1.0000
  H   H53       1.0  0.02246  0.11148  0.50437  1.0000
  O   O53       1.0  0.00010  0.04926  0.50436  1.0000
  O   O54       1.0  0.04929  0.00010  0.50436  1.0000
  H   H54       1.0  0.11151  0.02244  0.50436  1.0000
  H   H55       1.0  0.03410  0.15492  0.50437  1.0000
  O   O55       1.0  0.04658  0.21956  0.50438  1.0000
  O   O56       1.0  0.11261  0.23725  0.50438  1.0000
  H   H56       1.0  0.15573  0.18752  0.50438  1.0000
  Cu  Cu1       1.0  0.50021  0.50023  0.00446  1.0000
  Cu  Cu2       1.0  0.00010  0.00010  0.50435  1.0000
  Zn  Zn1       1.0  0.23777  0.56869  0.00446  1.0000
  Zn  Zn2       1.0  0.93184  0.73784  0.50437  1.0000
  Zn  Zn3       1.0  0.76270  0.43160  0.00446  1.0000
  Zn  Zn4       1.0  0.06892  0.26277  0.50438  1.0000
  Zn  Zn5       1.0  0.73782  0.93167  0.50437  1.0000
  Zn  Zn6       1.0  0.56883  0.23774  0.00444  1.0000
  Zn  Zn7       1.0  0.26275  0.06876  0.50438  1.0000
  Zn  Zn8       1.0  0.43174  0.76267  0.00444  1.0000
  Zn  Zn9       1.0  0.00010  0.50031  0.25443  1.0000
  Zn  Zn10      1.0  0.00010  0.50031  0.75444  1.0000
  Zn  Zn11      1.0  0.50018  0.00010  0.25441  1.0000
  Zn  Zn12      1.0  0.50018  0.00010  0.75441  1.0000
