data_image0
_chemical_formula_structural       C7NCNCNC3NCNC11NCNC7NHO2H2O2H2O2H2O2HNiC7NCNCNC3NCNC11NCNC7NHO2H2O2H2O2H2O2HNiC7NCNCNC3NCNC11NCNC7NHO2H2O2H2O2H2O2HNiC7NCNCNC3NCNC11NCNC7NHO2H2O2H2O2H2O2HNiC6O6C6O6C6O6C6O6Cu2Zn12
_chemical_formula_sum              "C152 N32 H32 O56 Ni4 Cu2 Zn12"
_cell_length_a       31.5694
_cell_length_b       31.5693
_cell_length_c       38.4796
_cell_angle_alpha    90.003
_cell_angle_beta     90.0031
_cell_angle_gamma    89.9998

_space_group_name_H-M_alt    "P 1"
_space_group_IT_number       1

loop_
  _space_group_symop_operation_xyz
  'x, y, z'

loop_
  _atom_site_type_symbol
  _atom_site_label
  _atom_site_symmetry_multiplicity
  _atom_site_fract_x
  _atom_site_fract_y
  _atom_site_fract_z
  _atom_site_occupancy
  C   C1        1.0  0.82173  0.46209  0.04355  1.0000
  C   C2        1.0  0.78028  0.45348  0.02324  1.0000
  C   C3        1.0  0.78024  0.45363  0.98280  1.0000
  C   C4        1.0  0.82165  0.46241  0.96248  1.0000
  C   C5        1.0  0.86185  0.47076  0.98367  1.0000
  C   C6        1.0  0.86189  0.47058  0.02235  1.0000
  C   C7        1.0  0.90706  0.48002  0.03443  1.0000
  N   N1        1.0  0.93623  0.48630  0.00301  1.0000
  C   C8        1.0  0.90699  0.48031  0.97158  1.0000
  N   N2        1.0  0.91836  0.48290  0.93452  1.0000
  C   C9        1.0  0.96257  0.49217  0.92495  1.0000
  N   N3        1.0  0.00010  0.49990  0.94944  1.0000
  C   C10       1.0  0.03758  0.50772  0.92496  1.0000
  C   C11       1.0  0.02314  0.50483  0.88711  1.0000
  C   C12       1.0  0.97699  0.49524  0.88709  1.0000
  N   N4        1.0  0.06400  0.51324  0.00300  1.0000
  C   C13       1.0  0.09323  0.51926  0.97158  1.0000
  N   N5        1.0  0.08184  0.51680  0.93452  1.0000
  C   C14       1.0  0.13837  0.52883  0.98367  1.0000
  C   C15       1.0  0.13833  0.52901  0.02235  1.0000
  C   C16       1.0  0.09317  0.51957  0.03443  1.0000
  C   C17       1.0  0.95171  0.49000  0.85340  1.0000
  C   C18       1.0  0.97596  0.49509  0.81868  1.0000
  C   C19       1.0  0.02420  0.50519  0.81870  1.0000
  C   C20       1.0  0.04844  0.51017  0.85344  1.0000
  C   C21       1.0  0.17849  0.53753  0.04355  1.0000
  C   C22       1.0  0.21994  0.54610  0.02324  1.0000
  C   C23       1.0  0.21997  0.54596  0.98280  1.0000
  C   C24       1.0  0.17857  0.53720  0.96248  1.0000
  N   N6        1.0  0.00010  0.49986  0.05656  1.0000
  C   C25       1.0  0.03754  0.50793  0.08105  1.0000
  N   N7        1.0  0.08172  0.51737  0.07149  1.0000
  C   C26       1.0  0.02314  0.50489  0.11890  1.0000
  C   C27       1.0  0.97705  0.49499  0.11891  1.0000
  C   C28       1.0  0.96266  0.49183  0.08105  1.0000
  C   C29       1.0  0.95178  0.48968  0.15260  1.0000
  C   C30       1.0  0.97599  0.49497  0.18732  1.0000
  C   C31       1.0  0.02420  0.50524  0.18730  1.0000
  C   C32       1.0  0.04842  0.51034  0.15257  1.0000
  N   N8        1.0  0.91849  0.48232  0.07149  1.0000
  H   H1        1.0  0.82229  0.46210  0.07083  1.0000
  O   O1        1.0  0.74533  0.44610  0.04005  1.0000
  O   O2        1.0  0.74527  0.44634  0.96600  1.0000
  H   H2        1.0  0.82215  0.46263  0.93519  1.0000
  H   H3        1.0  0.91915  0.48320  0.85383  1.0000
  O   O3        1.0  0.95593  0.49090  0.78937  1.0000
  O   O4        1.0  0.04425  0.50948  0.78940  1.0000
  H   H4        1.0  0.08100  0.51696  0.85389  1.0000
  H   H5        1.0  0.17794  0.53753  0.07083  1.0000
  O   O5        1.0  0.25489  0.55344  0.04005  1.0000
  O   O6        1.0  0.25495  0.55322  0.96600  1.0000
  H   H6        1.0  0.17806  0.53700  0.93520  1.0000
  H   H7        1.0  0.91926  0.48273  0.15216  1.0000
  O   O7        1.0  0.95594  0.49083  0.21663  1.0000
  O   O8        1.0  0.04424  0.50955  0.21661  1.0000
  H   H8        1.0  0.08094  0.51729  0.15211  1.0000
  Ni  Ni1       1.0  0.00010  0.49976  0.00301  1.0000
  C   C33       1.0  0.00988  0.45158  0.65258  1.0000
  C   C34       1.0  0.00488  0.47584  0.68731  1.0000
  C   C35       1.0  0.99489  0.52410  0.68732  1.0000
  C   C36       1.0  0.98987  0.54836  0.65259  1.0000
  C   C37       1.0  0.99510  0.52306  0.61891  1.0000
  C   C38       1.0  0.00461  0.47689  0.61890  1.0000
  C   C39       1.0  0.00759  0.46246  0.58105  1.0000
  N   N9        1.0  0.99990  0.49998  0.55657  1.0000
  C   C40       1.0  0.99212  0.53749  0.58105  1.0000
  N   N10       1.0  0.98302  0.58174  0.57149  1.0000
  C   C41       1.0  0.98060  0.59315  0.53443  1.0000
  N   N11       1.0  0.98660  0.56391  0.50300  1.0000
  C   C42       1.0  0.98039  0.59309  0.47158  1.0000
  C   C43       1.0  0.97104  0.63828  0.48366  1.0000
  C   C44       1.0  0.97115  0.63831  0.52233  1.0000
  N   N12       1.0  0.99990  0.50000  0.44944  1.0000
  C   C45       1.0  0.99194  0.53745  0.42495  1.0000
  N   N13       1.0  0.98258  0.58165  0.43451  1.0000
  C   C46       1.0  0.99505  0.52305  0.38709  1.0000
  C   C47       1.0  0.00492  0.47695  0.38710  1.0000
  C   C48       1.0  0.00800  0.46255  0.42495  1.0000
  C   C49       1.0  0.96277  0.67852  0.54351  1.0000
  C   C50       1.0  0.95406  0.71993  0.52318  1.0000
  C   C51       1.0  0.95403  0.71990  0.48274  1.0000
  C   C52       1.0  0.96262  0.67845  0.46244  1.0000
  C   C53       1.0  0.01031  0.45168  0.35342  1.0000
  C   C54       1.0  0.00509  0.47588  0.31869  1.0000
  C   C55       1.0  0.99481  0.52408  0.31869  1.0000
  C   C56       1.0  0.98966  0.54831  0.35341  1.0000
  N   N14       1.0  0.01341  0.43612  0.50300  1.0000
  C   C57       1.0  0.01974  0.40695  0.47158  1.0000
  N   N15       1.0  0.01749  0.41839  0.43452  1.0000
  C   C58       1.0  0.02922  0.36180  0.48365  1.0000
  C   C59       1.0  0.02901  0.36175  0.52233  1.0000
  C   C60       1.0  0.01939  0.40688  0.53442  1.0000
  C   C61       1.0  0.03746  0.32156  0.54351  1.0000
  C   C62       1.0  0.04636  0.28019  0.52318  1.0000
  C   C63       1.0  0.04649  0.28023  0.48274  1.0000
  C   C64       1.0  0.03779  0.32166  0.46244  1.0000
  N   N16       1.0  0.01678  0.41824  0.57148  1.0000
  H   H9        1.0  0.01662  0.41902  0.65213  1.0000
  O   O9        1.0  0.00907  0.45578  0.71662  1.0000
  O   O10       1.0  0.99074  0.54415  0.71663  1.0000
  H   H10       1.0  0.98314  0.58093  0.65215  1.0000
  H   H11       1.0  0.96292  0.67802  0.57080  1.0000
  O   O11       1.0  0.94672  0.75490  0.53997  1.0000
  O   O12       1.0  0.94676  0.75486  0.46592  1.0000
  H   H12       1.0  0.96269  0.67789  0.43516  1.0000
  H   H13       1.0  0.01726  0.41916  0.35386  1.0000
  O   O13       1.0  0.00929  0.45582  0.28939  1.0000
  O   O14       1.0  0.99051  0.54411  0.28938  1.0000
  H   H14       1.0  0.98273  0.58084  0.35385  1.0000
  H   H15       1.0  0.03725  0.32206  0.57080  1.0000
  O   O15       1.0  0.05378  0.24524  0.53998  1.0000
  O   O16       1.0  0.05393  0.24530  0.46593  1.0000
  H   H16       1.0  0.03779  0.32223  0.43516  1.0000
  Ni  Ni2       1.0  0.99990  0.49998  0.50301  1.0000
  C   C65       1.0  0.67845  0.96220  0.46243  1.0000
  C   C66       1.0  0.71989  0.95360  0.48274  1.0000
  C   C67       1.0  0.71993  0.95374  0.52318  1.0000
  C   C68       1.0  0.67852  0.96252  0.54350  1.0000
  C   C69       1.0  0.63832  0.97088  0.52231  1.0000
  C   C70       1.0  0.63828  0.97070  0.48363  1.0000
  C   C71       1.0  0.59312  0.98014  0.47155  1.0000
  N   N17       1.0  0.56394  0.98642  0.50298  1.0000
  C   C72       1.0  0.59318  0.98042  0.53440  1.0000
  N   N18       1.0  0.58182  0.98302  0.57146  1.0000
  C   C73       1.0  0.53760  0.99228  0.58103  1.0000
  N   N19       1.0  0.50009  0.00010  0.55654  1.0000
  C   C74       1.0  0.46259  0.00783  0.58102  1.0000
  C   C75       1.0  0.47703  0.00494  0.61888  1.0000
  C   C76       1.0  0.52318  0.99536  0.61889  1.0000
  N   N20       1.0  0.43618  0.01336  0.50298  1.0000
  C   C77       1.0  0.40694  0.01938  0.53440  1.0000
  N   N21       1.0  0.41833  0.01692  0.57146  1.0000
  C   C78       1.0  0.36180  0.02895  0.52231  1.0000
  C   C79       1.0  0.36184  0.02913  0.48364  1.0000
  C   C80       1.0  0.40701  0.01969  0.47156  1.0000
  C   C81       1.0  0.54846  0.99011  0.65258  1.0000
  C   C82       1.0  0.52421  0.99521  0.68730  1.0000
  C   C83       1.0  0.47597  0.00531  0.68728  1.0000
  C   C84       1.0  0.45173  0.01028  0.65255  1.0000
  C   C85       1.0  0.32168  0.03765  0.46244  1.0000
  C   C86       1.0  0.28024  0.04622  0.48275  1.0000
  C   C87       1.0  0.28020  0.04608  0.52318  1.0000
  C   C88       1.0  0.32161  0.03732  0.54350  1.0000
  N   N22       1.0  0.50007  0.99990  0.44942  1.0000
  C   C89       1.0  0.46263  0.00805  0.42493  1.0000
  N   N23       1.0  0.41846  0.01749  0.43450  1.0000
  C   C90       1.0  0.47703  0.00501  0.38708  1.0000
  C   C91       1.0  0.52312  0.99511  0.38707  1.0000
  C   C92       1.0  0.53752  0.99194  0.42493  1.0000
  C   C93       1.0  0.54839  0.98980  0.35338  1.0000
  C   C94       1.0  0.52418  0.99509  0.31867  1.0000
  C   C95       1.0  0.47597  0.00536  0.31868  1.0000
  C   C96       1.0  0.45176  0.01046  0.35341  1.0000
  N   N24       1.0  0.58168  0.98243  0.43449  1.0000
  H   H17       1.0  0.67789  0.96222  0.43515  1.0000
  O   O17       1.0  0.75484  0.94622  0.46593  1.0000
  O   O18       1.0  0.75491  0.94645  0.53998  1.0000
  H   H18       1.0  0.67802  0.96275  0.57079  1.0000
  H   H19       1.0  0.58102  0.98332  0.65215  1.0000
  O   O19       1.0  0.54424  0.99101  0.71661  1.0000
  O   O20       1.0  0.45592  0.00960  0.71658  1.0000
  H   H20       1.0  0.41918  0.01708  0.65209  1.0000
  H   H21       1.0  0.32224  0.03765  0.43515  1.0000
  O   O21       1.0  0.24528  0.05356  0.46594  1.0000
  O   O22       1.0  0.24523  0.05334  0.53999  1.0000
  H   H22       1.0  0.32211  0.03712  0.57079  1.0000
  H   H23       1.0  0.58092  0.98285  0.35382  1.0000
  O   O23       1.0  0.54423  0.99095  0.28935  1.0000
  O   O24       1.0  0.45593  0.00967  0.28938  1.0000
  H   H24       1.0  0.41924  0.01741  0.35387  1.0000
  Ni  Ni3       1.0  0.50006  0.99990  0.50298  1.0000
  C   C97       1.0  0.46286  0.82156  0.04353  1.0000
  C   C98       1.0  0.45405  0.78016  0.02322  1.0000
  C   C99       1.0  0.45390  0.78018  0.98278  1.0000
  C   C100      1.0  0.46253  0.82162  0.96246  1.0000
  C   C101      1.0  0.47107  0.86178  0.98365  1.0000
  C   C102      1.0  0.47125  0.86175  0.02233  1.0000
  C   C103      1.0  0.48079  0.90689  0.03441  1.0000
  N   N25       1.0  0.48679  0.93613  0.00299  1.0000
  C   C104      1.0  0.48050  0.90695  0.97156  1.0000
  N   N26       1.0  0.48270  0.91840  0.93450  1.0000
  C   C105      1.0  0.49202  0.96260  0.92493  1.0000
  N   N27       1.0  0.50004  0.00010  0.94942  1.0000
  C   C106      1.0  0.50799  0.03752  0.92494  1.0000
  C   C107      1.0  0.50482  0.02314  0.88709  1.0000
  C   C108      1.0  0.49501  0.97703  0.88707  1.0000
  N   N28       1.0  0.51356  0.06393  0.00298  1.0000
  C   C109      1.0  0.51982  0.09311  0.97156  1.0000
  N   N29       1.0  0.51749  0.08169  0.93450  1.0000
  C   C110      1.0  0.52923  0.13829  0.98365  1.0000
  C   C111      1.0  0.52905  0.13832  0.02233  1.0000
  C   C112      1.0  0.51951  0.09318  0.03441  1.0000
  C   C113      1.0  0.48964  0.95178  0.85338  1.0000
  C   C114      1.0  0.49474  0.97604  0.81866  1.0000
  C   C115      1.0  0.50491  0.02426  0.81868  1.0000
  C   C116      1.0  0.51012  0.04845  0.85342  1.0000
  C   C117      1.0  0.53742  0.17851  0.04353  1.0000
  C   C118      1.0  0.54626  0.21990  0.02322  1.0000
  C   C119      1.0  0.54640  0.21988  0.98278  1.0000
  C   C120      1.0  0.53775  0.17845  0.96246  1.0000
  N   N30       1.0  0.50009  0.00010  0.05654  1.0000
  C   C121      1.0  0.50777  0.03757  0.08103  1.0000
  N   N31       1.0  0.51692  0.08181  0.07147  1.0000
  C   C122      1.0  0.50476  0.02317  0.11888  1.0000
  C   C123      1.0  0.49527  0.97699  0.11889  1.0000
  C   C124      1.0  0.49237  0.96254  0.08103  1.0000
  C   C125      1.0  0.48995  0.95172  0.15258  1.0000
  C   C126      1.0  0.49486  0.97602  0.18730  1.0000
  C   C127      1.0  0.50487  0.02428  0.18728  1.0000
  C   C128      1.0  0.50995  0.04850  0.15255  1.0000
  N   N32       1.0  0.48329  0.91829  0.07147  1.0000
  H   H25       1.0  0.46307  0.82208  0.07081  1.0000
  O   O25       1.0  0.44674  0.74520  0.04003  1.0000
  O   O26       1.0  0.44649  0.74523  0.96598  1.0000
  H   H26       1.0  0.46253  0.82217  0.93517  1.0000
  H   H27       1.0  0.48275  0.91925  0.85381  1.0000
  O   O27       1.0  0.49051  0.95601  0.78935  1.0000
  O   O28       1.0  0.50905  0.04434  0.78938  1.0000
  H   H28       1.0  0.51700  0.08099  0.85387  1.0000
  H   H29       1.0  0.53720  0.17800  0.07081  1.0000
  O   O29       1.0  0.55362  0.25486  0.04003  1.0000
  O   O30       1.0  0.55383  0.25482  0.96598  1.0000
  H   H30       1.0  0.53773  0.17791  0.93518  1.0000
  H   H31       1.0  0.48322  0.91915  0.15214  1.0000
  O   O31       1.0  0.49058  0.95599  0.21661  1.0000
  O   O32       1.0  0.50899  0.04436  0.21659  1.0000
  H   H32       1.0  0.51668  0.08107  0.15209  1.0000
  Ni  Ni4       1.0  0.50019  0.00010  0.00299  1.0000
  C   C129      1.0  0.38177  0.55547  0.00302  1.0000
  C   C130      1.0  0.42461  0.54399  0.00302  1.0000
  C   C131      1.0  0.45596  0.57534  0.00302  1.0000
  C   C132      1.0  0.44448  0.61818  0.00302  1.0000
  C   C133      1.0  0.40165  0.62966  0.00302  1.0000
  C   C134      1.0  0.37029  0.59830  0.00302  1.0000
  O   O33       1.0  0.35355  0.52724  0.00302  1.0000
  O   O34       1.0  0.43494  0.50543  0.00302  1.0000
  O   O35       1.0  0.49452  0.56501  0.00302  1.0000
  O   O36       1.0  0.47271  0.64640  0.00302  1.0000
  O   O37       1.0  0.39132  0.66821  0.00301  1.0000
  O   O38       1.0  0.33174  0.60863  0.00302  1.0000
  C   C135      1.0  0.88191  0.94456  0.50294  1.0000
  C   C136      1.0  0.92474  0.95603  0.50294  1.0000
  C   C137      1.0  0.95610  0.92467  0.50294  1.0000
  C   C138      1.0  0.94462  0.88184  0.50294  1.0000
  C   C139      1.0  0.90178  0.87036  0.50294  1.0000
  C   C140      1.0  0.87043  0.90172  0.50294  1.0000
  O   O39       1.0  0.85369  0.97278  0.50294  1.0000
  O   O40       1.0  0.93507  0.99458  0.50294  1.0000
  O   O41       1.0  0.99465  0.93500  0.50294  1.0000
  O   O42       1.0  0.97284  0.85362  0.50294  1.0000
  O   O43       1.0  0.89145  0.83181  0.50294  1.0000
  O   O44       1.0  0.83187  0.89139  0.50294  1.0000
  C   C141      1.0  0.57532  0.45598  0.00302  1.0000
  C   C142      1.0  0.61816  0.44450  0.00302  1.0000
  C   C143      1.0  0.62964  0.40167  0.00302  1.0000
  C   C144      1.0  0.59828  0.37031  0.00302  1.0000
  C   C145      1.0  0.55544  0.38179  0.00302  1.0000
  C   C146      1.0  0.54397  0.42463  0.00302  1.0000
  O   O45       1.0  0.56499  0.49454  0.00302  1.0000
  O   O46       1.0  0.64638  0.47273  0.00302  1.0000
  O   O47       1.0  0.66819  0.39134  0.00302  1.0000
  O   O48       1.0  0.60861  0.33176  0.00301  1.0000
  O   O49       1.0  0.52722  0.35357  0.00301  1.0000
  O   O50       1.0  0.50541  0.43496  0.00302  1.0000
  C   C147      1.0  0.07546  0.04404  0.50295  1.0000
  C   C148      1.0  0.11830  0.05552  0.50295  1.0000
  C   C149      1.0  0.12977  0.09836  0.50295  1.0000
  C   C150      1.0  0.09842  0.12972  0.50295  1.0000
  C   C151      1.0  0.05558  0.11824  0.50295  1.0000
  C   C152      1.0  0.04410  0.07540  0.50295  1.0000
  O   O51       1.0  0.06514  0.00549  0.50295  1.0000
  O   O52       1.0  0.14652  0.02730  0.50295  1.0000
  O   O53       1.0  0.16833  0.10869  0.50296  1.0000
  O   O54       1.0  0.10874  0.16827  0.50296  1.0000
  O   O55       1.0  0.02736  0.14646  0.50295  1.0000
  O   O56       1.0  0.00555  0.06507  0.50295  1.0000
  Cu  Cu1       1.0  0.49996  0.49999  0.00302  1.0000
  Cu  Cu2       1.0  0.00010  0.00010  0.50294  1.0000
  Zn  Zn1       1.0  0.29883  0.56063  0.00302  1.0000
  Zn  Zn2       1.0  0.93946  0.79880  0.50294  1.0000
  Zn  Zn3       1.0  0.70124  0.43913  0.00302  1.0000
  Zn  Zn4       1.0  0.06096  0.20132  0.50295  1.0000
  Zn  Zn5       1.0  0.79883  0.93923  0.50295  1.0000
  Zn  Zn6       1.0  0.56082  0.29879  0.00301  1.0000
  Zn  Zn7       1.0  0.20134  0.06071  0.50296  1.0000
  Zn  Zn8       1.0  0.43931  0.70122  0.00301  1.0000
  Zn  Zn9       1.0  0.99990  0.50008  0.25300  1.0000
  Zn  Zn10      1.0  0.00010  0.50008  0.75301  1.0000
  Zn  Zn11      1.0  0.49993  0.00010  0.25298  1.0000
  Zn  Zn12      1.0  0.49993  0.00010  0.75298  1.0000
