data_image0
_chemical_formula_structural       C6O6C6O6C7NCNCNC3NCNC11NCNC7NHO2H2O2H2O2H2O2HNiC7NCNCNC3NCNC11NCNC7NHO2H2O2H2O2H2O2HNiC7NCNCNC3NCNC11NCNC7NHO2H2O2H2O2H2O2HNiCu3Zn6
_chemical_formula_sum              "C108 O36 N24 H24 Ni3 Cu3 Zn6"
_cell_length_a       46.1479
_cell_length_b       46.1524
_cell_length_c       19.2398
_cell_angle_alpha    90.0005
_cell_angle_beta     90.0039
_cell_angle_gamma    120

_space_group_name_H-M_alt    "P 1"
_space_group_IT_number       1

loop_
  _space_group_symop_operation_xyz
  'x, y, z'

loop_
  _atom_site_type_symbol
  _atom_site_label
  _atom_site_symmetry_multiplicity
  _atom_site_fract_x
  _atom_site_fract_y
  _atom_site_fract_z
  _atom_site_occupancy
  C   C1        1.0  0.35564  0.70023  0.00010  1.0000
  C   C2        1.0  0.32560  0.66961  0.00010  1.0000
  C   C3        1.0  0.32618  0.63957  0.00010  1.0000
  C   C4        1.0  0.35680  0.64015  0.00010  1.0000
  C   C5        1.0  0.38684  0.67077  0.00010  1.0000
  C   C6        1.0  0.38626  0.70081  0.00010  1.0000
  O   O1        1.0  0.35512  0.72727  0.00010  1.0000
  O   O2        1.0  0.29803  0.66909  0.00010  1.0000
  O   O3        1.0  0.29914  0.61201  0.00010  1.0000
  O   O4        1.0  0.35732  0.61312  0.00010  1.0000
  O   O5        1.0  0.41440  0.67129  0.00010  1.0000
  O   O6        1.0  0.41330  0.72837  0.00010  1.0000
  C   C7        1.0  0.68895  0.30621  0.00010  1.0000
  C   C8        1.0  0.71957  0.33625  0.00010  1.0000
  C   C9        1.0  0.72015  0.36687  0.00010  1.0000
  C   C10       1.0  0.69010  0.36745  0.00010  1.0000
  C   C11       1.0  0.65948  0.33741  0.00010  1.0000
  C   C12       1.0  0.65890  0.30679  0.00010  1.0000
  O   O7        1.0  0.68843  0.27866  0.00010  1.0000
  O   O8        1.0  0.74661  0.33573  0.00010  1.0000
  O   O9        1.0  0.74771  0.39391  0.00010  1.0000
  O   O10       1.0  0.69062  0.39501  0.00010  1.0000
  O   O11       1.0  0.63244  0.33793  0.00010  1.0000
  O   O12       1.0  0.63134  0.27975  0.00010  1.0000
  C   C13       1.0  0.87885  0.42645  0.08160  1.0000
  C   C14       1.0  0.84541  0.40980  0.04097  1.0000
  C   C15       1.0  0.84541  0.40990  0.96010  1.0000
  C   C16       1.0  0.87884  0.42667  0.91945  1.0000
  C   C17       1.0  0.91128  0.44283  0.96184  1.0000
  C   C18       1.0  0.91128  0.44270  0.03919  1.0000
  C   C19       1.0  0.94773  0.46089  0.06336  1.0000
  N   N1        1.0  0.97130  0.47277  0.00010  1.0000
  C   C20       1.0  0.94772  0.46109  0.93767  1.0000
  N   N2        1.0  0.95693  0.46583  0.86354  1.0000
  C   C21       1.0  0.99262  0.48365  0.84441  1.0000
  N   N3        1.0  0.02287  0.49868  0.89339  1.0000
  C   C22       1.0  0.05313  0.51377  0.84443  1.0000
  C   C23       1.0  0.04150  0.50805  0.76872  1.0000
  C   C24       1.0  0.00426  0.48950  0.76869  1.0000
  N   N4        1.0  0.07444  0.52441  0.00010  1.0000
  C   C25       1.0  0.09802  0.53611  0.93768  1.0000
  N   N5        1.0  0.08882  0.53147  0.86355  1.0000
  C   C26       1.0  0.13447  0.55440  0.96186  1.0000
  C   C27       1.0  0.13447  0.55452  0.03920  1.0000
  C   C28       1.0  0.09802  0.53633  0.06336  1.0000
  C   C29       1.0  0.98387  0.47935  0.70130  1.0000
  C   C30       1.0  0.00344  0.48914  0.63187  1.0000
  C   C31       1.0  0.04237  0.50858  0.63191  1.0000
  C   C32       1.0  0.06192  0.51827  0.70138  1.0000
  C   C33       1.0  0.16690  0.57078  0.08161  1.0000
  C   C34       1.0  0.20033  0.58741  0.04099  1.0000
  C   C35       1.0  0.20033  0.58731  0.96012  1.0000
  C   C36       1.0  0.16690  0.57056  0.91947  1.0000
  N   N6        1.0  0.02288  0.49865  0.10763  1.0000
  C   C37       1.0  0.05313  0.51392  0.15660  1.0000
  N   N7        1.0  0.08881  0.53186  0.13748  1.0000
  C   C38       1.0  0.04151  0.50810  0.23231  1.0000
  C   C39       1.0  0.00427  0.48933  0.23232  1.0000
  C   C40       1.0  0.99263  0.48342  0.15661  1.0000
  C   C41       1.0  0.98387  0.47913  0.29970  1.0000
  C   C42       1.0  0.00345  0.48906  0.36914  1.0000
  C   C43       1.0  0.04238  0.50862  0.36911  1.0000
  C   C44       1.0  0.06193  0.51840  0.29965  1.0000
  N   N8        1.0  0.95694  0.46542  0.13748  1.0000
  H   H1        1.0  0.87929  0.42660  0.13617  1.0000
  O   O13       1.0  0.81720  0.39567  0.07459  1.0000
  O   O14       1.0  0.81719  0.39583  0.92649  1.0000
  H   H2        1.0  0.87927  0.42696  0.86489  1.0000
  H   H3        1.0  0.95760  0.46625  0.70216  1.0000
  O   O15       1.0  0.98727  0.48107  0.57324  1.0000
  O   O16       1.0  0.05857  0.51673  0.57332  1.0000
  H   H4        1.0  0.08819  0.53138  0.70230  1.0000
  H   H5        1.0  0.16647  0.57065  0.13617  1.0000
  O   O17       1.0  0.22854  0.60151  0.07461  1.0000
  O   O18       1.0  0.22855  0.60136  0.92651  1.0000
  H   H6        1.0  0.16648  0.57028  0.86491  1.0000
  H   H7        1.0  0.95760  0.46593  0.29882  1.0000
  O   O19       1.0  0.98727  0.48102  0.42776  1.0000
  O   O20       1.0  0.05857  0.51678  0.42772  1.0000
  H   H8        1.0  0.08820  0.53161  0.29874  1.0000
  Ni  Ni1       1.0  0.02287  0.49858  0.00010  1.0000
  C   C45       1.0  0.53735  0.04255  0.70126  1.0000
  C   C46       1.0  0.52764  0.02299  0.63180  1.0000
  C   C47       1.0  0.50828  0.98406  0.63180  1.0000
  C   C48       1.0  0.49855  0.96449  0.70125  1.0000
  C   C49       1.0  0.50869  0.98490  0.76862  1.0000
  C   C50       1.0  0.52718  0.02213  0.76862  1.0000
  C   C51       1.0  0.53296  0.03376  0.84433  1.0000
  N   N9        1.0  0.51793  0.00351  0.89330  1.0000
  C   C52       1.0  0.50291  0.97326  0.84433  1.0000
  N   N10       1.0  0.48521  0.93758  0.86345  1.0000
  C   C53       1.0  0.48058  0.92837  0.93758  1.0000
  N   N11       1.0  0.49227  0.95195  0.00010  1.0000
  C   C54       1.0  0.48044  0.92838  0.06328  1.0000
  C   C55       1.0  0.46232  0.89193  0.03912  1.0000
  C   C56       1.0  0.46239  0.89192  0.96177  1.0000
  N   N12       1.0  0.51799  0.00351  0.10755  1.0000
  C   C57       1.0  0.50278  0.97326  0.15653  1.0000
  N   N13       1.0  0.48490  0.93758  0.13741  1.0000
  C   C58       1.0  0.50866  0.98490  0.23224  1.0000
  C   C59       1.0  0.52740  0.02213  0.23224  1.0000
  C   C60       1.0  0.53325  0.03376  0.15653  1.0000
  C   C61       1.0  0.44622  0.85948  0.91941  1.0000
  C   C62       1.0  0.42950  0.82606  0.96007  1.0000
  C   C63       1.0  0.42949  0.82608  0.04094  1.0000
  C   C64       1.0  0.44612  0.85952  0.08154  1.0000
  C   C65       1.0  0.53765  0.04254  0.29960  1.0000
  C   C66       1.0  0.52779  0.02299  0.36905  1.0000
  C   C67       1.0  0.50822  0.98406  0.36905  1.0000
  C   C68       1.0  0.49840  0.96450  0.29961  1.0000
  N   N14       1.0  0.54380  0.05507  0.00010  1.0000
  C   C69       1.0  0.55572  0.07865  0.06328  1.0000
  N   N15       1.0  0.55122  0.06944  0.13740  1.0000
  C   C70       1.0  0.57393  0.11509  0.03913  1.0000
  C   C71       1.0  0.57379  0.11510  0.96178  1.0000
  C   C72       1.0  0.55548  0.07865  0.93759  1.0000
  C   C73       1.0  0.59001  0.14753  0.91940  1.0000
  C   C74       1.0  0.60686  0.18095  0.96007  1.0000
  C   C75       1.0  0.60694  0.18094  0.04095  1.0000
  C   C76       1.0  0.59023  0.14751  0.08155  1.0000
  N   N16       1.0  0.55072  0.06944  0.86347  1.0000
  H   H9        1.0  0.55041  0.06881  0.70216  1.0000
  O   O21       1.0  0.53571  0.03917  0.57320  1.0000
  O   O22       1.0  0.50024  0.96788  0.57317  1.0000
  H   H10       1.0  0.48549  0.93823  0.70214  1.0000
  H   H11       1.0  0.44645  0.85990  0.86484  1.0000
  O   O23       1.0  0.41540  0.79784  0.92649  1.0000
  O   O24       1.0  0.41544  0.79787  0.07459  1.0000
  H   H12       1.0  0.44632  0.85996  0.13611  1.0000
  H   H13       1.0  0.55086  0.06881  0.29870  1.0000
  O   O25       1.0  0.53587  0.03918  0.42765  1.0000
  O   O26       1.0  0.50008  0.96789  0.42766  1.0000
  H   H14       1.0  0.48521  0.93823  0.29874  1.0000
  H   H15       1.0  0.58973  0.14711  0.86484  1.0000
  O   O27       1.0  0.62101  0.20917  0.92647  1.0000
  O   O28       1.0  0.62112  0.20915  0.07458  1.0000
  H   H16       1.0  0.59009  0.14706  0.13612  1.0000
  Ni  Ni2       1.0  0.51795  0.00351  0.00010  1.0000
  C   C77       1.0  0.50840  0.52808  0.29987  1.0000
  C   C78       1.0  0.51811  0.51823  0.36933  1.0000
  C   C79       1.0  0.53747  0.49865  0.36934  1.0000
  C   C80       1.0  0.54720  0.48882  0.29989  1.0000
  C   C81       1.0  0.53706  0.49909  0.23252  1.0000
  C   C82       1.0  0.51857  0.51783  0.23251  1.0000
  C   C83       1.0  0.51279  0.52369  0.15680  1.0000
  N   N17       1.0  0.52782  0.50846  0.10784  1.0000
  C   C84       1.0  0.54284  0.49323  0.15681  1.0000
  N   N18       1.0  0.56055  0.47525  0.13768  1.0000
  C   C85       1.0  0.56517  0.47066  0.06355  1.0000
  N   N19       1.0  0.55348  0.48255  0.00010  1.0000
  C   C86       1.0  0.56531  0.47081  0.93786  1.0000
  C   C87       1.0  0.58344  0.45249  0.96202  1.0000
  C   C88       1.0  0.58336  0.45241  0.03936  1.0000
  N   N20       1.0  0.52776  0.50840  0.89358  1.0000
  C   C89       1.0  0.54297  0.49336  0.84460  1.0000
  N   N21       1.0  0.56085  0.47556  0.86373  1.0000
  C   C90       1.0  0.53709  0.49912  0.76889  1.0000
  C   C91       1.0  0.51835  0.51761  0.76890  1.0000
  C   C92       1.0  0.51251  0.52340  0.84461  1.0000
  C   C93       1.0  0.59954  0.43614  0.08173  1.0000
  C   C94       1.0  0.61625  0.41943  0.04106  1.0000
  C   C95       1.0  0.61626  0.41946  0.96019  1.0000
  C   C96       1.0  0.59963  0.43626  0.91959  1.0000
  C   C97       1.0  0.50810  0.52777  0.70154  1.0000
  C   C98       1.0  0.51796  0.51808  0.63209  1.0000
  C   C99       1.0  0.53753  0.49872  0.63208  1.0000
  C   C100      1.0  0.54735  0.48897  0.70152  1.0000
  N   N22       1.0  0.50195  0.53415  0.00010  1.0000
  C   C101      1.0  0.49003  0.54580  0.93785  1.0000
  N   N23       1.0  0.49453  0.54110  0.86374  1.0000
  C   C102      1.0  0.47182  0.56404  0.96201  1.0000
  C   C103      1.0  0.47196  0.56418  0.03936  1.0000
  C   C104      1.0  0.49027  0.54605  0.06354  1.0000
  C   C105      1.0  0.45574  0.58040  0.08173  1.0000
  C   C106      1.0  0.43889  0.59698  0.04107  1.0000
  C   C107      1.0  0.43881  0.59689  0.96019  1.0000
  C   C108      1.0  0.45552  0.58016  0.91958  1.0000
  N   N24       1.0  0.49503  0.54160  0.13766  1.0000
  H   H17       1.0  0.49534  0.54128  0.29897  1.0000
  O   O29       1.0  0.51004  0.52634  0.42794  1.0000
  O   O30       1.0  0.54552  0.49053  0.42796  1.0000
  H   H18       1.0  0.56026  0.47561  0.29900  1.0000
  H   H19       1.0  0.59930  0.43631  0.13629  1.0000
  O   O31       1.0  0.63035  0.40530  0.07464  1.0000
  O   O32       1.0  0.63031  0.40530  0.92654  1.0000
  H   H20       1.0  0.59944  0.43651  0.86502  1.0000
  H   H21       1.0  0.49489  0.54083  0.70243  1.0000
  O   O33       1.0  0.50988  0.52618  0.57348  1.0000
  O   O34       1.0  0.54568  0.49068  0.57347  1.0000
  H   H22       1.0  0.56054  0.47590  0.70240  1.0000
  H   H23       1.0  0.45602  0.58027  0.13630  1.0000
  O   O35       1.0  0.42474  0.61104  0.07466  1.0000
  O   O36       1.0  0.42464  0.61092  0.92656  1.0000
  H   H24       1.0  0.45566  0.57986  0.86502  1.0000
  Ni  Ni3       1.0  0.52780  0.50844  0.00010  1.0000
  Cu  Cu1       1.0  0.02292  0.49890  0.50051  1.0000
  Cu  Cu2       1.0  0.51797  0.00353  0.50042  1.0000
  Cu  Cu3       1.0  0.52778  0.50843  0.50071  1.0000
  Zn  Zn1       1.0  0.26357  0.62099  0.00010  1.0000
  Zn  Zn2       1.0  0.64047  0.24418  0.00010  1.0000
  Zn  Zn3       1.0  0.40527  0.62659  0.00010  1.0000
  Zn  Zn4       1.0  0.78218  0.38029  0.00010  1.0000
  Zn  Zn5       1.0  0.39981  0.76284  0.00010  1.0000
  Zn  Zn6       1.0  0.64593  0.38589  0.00010  1.0000
