data_image0
_chemical_formula_structural       C6O6C6O6C7NCNCNC3NCNC11NCNC7NH8C16HO2H2O2H2O2H2O2HNiC7NCNCNC3NCNC11NCNC7NH8C16HO2H2O2H2O2H2O2HNiC7NCNCNC3NCNC11NCNC7NH8C16HO2H2O2H2O2H2O2HNiCu3Zn6
_chemical_formula_sum              "C156 O36 N24 H48 Ni3 Cu3 Zn6"
_cell_length_a       56.2528
_cell_length_b       56.2538
_cell_length_c       25.0733
_cell_angle_alpha    89.9994
_cell_angle_beta     90.3201
_cell_angle_gamma    119.999

_space_group_name_H-M_alt    "P 1"
_space_group_IT_number       1

loop_
  _space_group_symop_operation_xyz
  'x, y, z'

loop_
  _atom_site_type_symbol
  _atom_site_label
  _atom_site_symmetry_multiplicity
  _atom_site_fract_x
  _atom_site_fract_y
  _atom_site_fract_z
  _atom_site_occupancy
  C   C1        1.0  0.33475  0.70090  0.00614  1.0000
  C   C2        1.0  0.30994  0.67594  0.00614  1.0000
  C   C3        1.0  0.31007  0.65112  0.00614  1.0000
  C   C4        1.0  0.33503  0.65126  0.00614  1.0000
  C   C5        1.0  0.35985  0.67622  0.00614  1.0000
  C   C6        1.0  0.35971  0.70104  0.00614  1.0000
  O   O1        1.0  0.33463  0.72323  0.00614  1.0000
  O   O2        1.0  0.28747  0.67581  0.00614  1.0000
  O   O3        1.0  0.28774  0.62866  0.00614  1.0000
  O   O4        1.0  0.33516  0.62893  0.00614  1.0000
  O   O5        1.0  0.38231  0.67634  0.00614  1.0000
  O   O6        1.0  0.38204  0.72350  0.00614  1.0000
  C   C7        1.0  0.66808  0.31778  0.00404  1.0000
  C   C8        1.0  0.69303  0.34260  0.00404  1.0000
  C   C9        1.0  0.69317  0.36755  0.00405  1.0000
  C   C10       1.0  0.66836  0.36769  0.00405  1.0000
  C   C11       1.0  0.64340  0.34287  0.00405  1.0000
  C   C12       1.0  0.64326  0.31792  0.00404  1.0000
  O   O7        1.0  0.66795  0.29532  0.00404  1.0000
  O   O8        1.0  0.71537  0.34247  0.00404  1.0000
  O   O9        1.0  0.71563  0.38989  0.00405  1.0000
  O   O10       1.0  0.66848  0.39015  0.00405  1.0000
  O   O11       1.0  0.62106  0.34300  0.00405  1.0000
  O   O12       1.0  0.62080  0.29558  0.00404  1.0000
  C   C13       1.0  0.03364  0.52405  0.23828  1.0000
  C   C14       1.0  0.01757  0.51602  0.29135  1.0000
  C   C15       1.0  0.98574  0.50010  0.29114  1.0000
  C   C16       1.0  0.96970  0.49208  0.23787  1.0000
  C   C17       1.0  0.98634  0.50040  0.18629  1.0000
  C   C18       1.0  0.01703  0.51575  0.18648  1.0000
  C   C19       1.0  0.02666  0.52056  0.12845  1.0000
  N   N1        1.0  0.00163  0.50805  0.09170  1.0000
  C   C20       1.0  0.97665  0.49555  0.12812  1.0000
  N   N2        1.0  0.94692  0.48069  0.11095  1.0000
  C   C21       1.0  0.93815  0.47631  0.05324  1.0000
  N   N3        1.0  0.95694  0.48570  0.00475  1.0000
  C   C22       1.0  0.93812  0.47629  0.95610  1.0000
  C   C23       1.0  0.90824  0.46135  0.97475  1.0000
  C   C24       1.0  0.90823  0.46134  0.03432  1.0000
  N   N4        1.0  0.00142  0.50794  0.91845  1.0000
  C   C25       1.0  0.97643  0.49544  0.88181  1.0000
  N   N5        1.0  0.94680  0.48063  0.89854  1.0000
  C   C26       1.0  0.98607  0.50027  0.82374  1.0000
  C   C27       1.0  0.01673  0.51560  0.82389  1.0000
  C   C28       1.0  0.02641  0.52043  0.88203  1.0000
  C   C29       1.0  0.88165  0.44805  0.06651  1.0000
  C   C30       1.0  0.85429  0.43438  0.03537  1.0000
  C   C31       1.0  0.85428  0.43437  0.97360  1.0000
  C   C32       1.0  0.88161  0.44804  0.94245  1.0000
  C   C33       1.0  0.03335  0.52391  0.77228  1.0000
  C   C34       1.0  0.01736  0.51591  0.71903  1.0000
  C   C35       1.0  0.98556  0.50001  0.71893  1.0000
  C   C36       1.0  0.96949  0.49198  0.77199  1.0000
  N   N6        1.0  0.04613  0.53029  0.00542  1.0000
  C   C37       1.0  0.06489  0.53967  0.95694  1.0000
  N   N7        1.0  0.05609  0.53528  0.89918  1.0000
  C   C38       1.0  0.09482  0.55464  0.97583  1.0000
  C   C39       1.0  0.09485  0.55466  0.03545  1.0000
  C   C40       1.0  0.06497  0.53972  0.05410  1.0000
  C   C41       1.0  0.12149  0.56798  0.06777  1.0000
  C   C42       1.0  0.14884  0.58165  0.03666  1.0000
  C   C43       1.0  0.14879  0.58163  0.97483  1.0000
  C   C44       1.0  0.12139  0.56793  0.94361  1.0000
  N   N8        1.0  0.05631  0.53538  0.11174  1.0000
  H   H1        1.0  0.05694  0.53570  0.23779  1.0000
  H   H2        1.0  0.94638  0.48042  0.23710  1.0000
  H   H3        1.0  0.88199  0.44823  0.11179  1.0000
  H   H4        1.0  0.88192  0.44819  0.89720  1.0000
  H   H5        1.0  0.05664  0.53555  0.77300  1.0000
  H   H6        1.0  0.94620  0.48033  0.77254  1.0000
  H   H7        1.0  0.12119  0.56783  0.11305  1.0000
  H   H8        1.0  0.12103  0.56775  0.89830  1.0000
  C   C45       1.0  0.17623  0.59535  0.06708  1.0000
  C   C46       1.0  0.20352  0.60899  0.03637  1.0000
  C   C47       1.0  0.20347  0.60897  0.97523  1.0000
  C   C48       1.0  0.17614  0.59530  0.94448  1.0000
  C   C49       1.0  0.03318  0.52382  0.34469  1.0000
  C   C50       1.0  0.01735  0.51590  0.39766  1.0000
  C   C51       1.0  0.98588  0.50017  0.39747  1.0000
  C   C52       1.0  0.97009  0.49228  0.34430  1.0000
  C   C53       1.0  0.82692  0.42069  0.06573  1.0000
  C   C54       1.0  0.79961  0.40704  0.03498  1.0000
  C   C55       1.0  0.79961  0.40704  0.97385  1.0000
  C   C56       1.0  0.82690  0.42068  0.94320  1.0000
  C   C57       1.0  0.03302  0.52374  0.66589  1.0000
  C   C58       1.0  0.01727  0.51586  0.61284  1.0000
  C   C59       1.0  0.98583  0.50015  0.61269  1.0000
  C   C60       1.0  0.97000  0.49223  0.66566  1.0000
  H   H9        1.0  0.17631  0.59539  0.11235  1.0000
  O   O13       1.0  0.23017  0.62232  0.06614  1.0000
  O   O14       1.0  0.23010  0.62228  0.94551  1.0000
  H   H10       1.0  0.17619  0.59533  0.89916  1.0000
  H   H11       1.0  0.05649  0.53548  0.34493  1.0000
  O   O15       1.0  0.03262  0.52354  0.44953  1.0000
  O   O16       1.0  0.97053  0.49250  0.44916  1.0000
  H   H12       1.0  0.94678  0.48062  0.34431  1.0000
  H   H13       1.0  0.82685  0.42066  0.11097  1.0000
  O   O17       1.0  0.77297  0.39372  0.06466  1.0000
  O   O18       1.0  0.77298  0.39372  0.94417  1.0000
  H   H14       1.0  0.82683  0.42065  0.89795  1.0000
  H   H15       1.0  0.05628  0.53537  0.66586  1.0000
  O   O19       1.0  0.03257  0.52352  0.56112  1.0000
  O   O20       1.0  0.97058  0.49252  0.56090  1.0000
  H   H16       1.0  0.94671  0.48058  0.66545  1.0000
  Ni  Ni1       1.0  0.00153  0.50800  0.00509  1.0000
  C   C61       1.0  0.51620  0.04149  0.23806  1.0000
  C   C62       1.0  0.50817  0.02543  0.29123  1.0000
  C   C63       1.0  0.49225  0.99360  0.29122  1.0000
  C   C64       1.0  0.48423  0.97755  0.23806  1.0000
  C   C65       1.0  0.49255  0.99419  0.18637  1.0000
  C   C66       1.0  0.50789  0.02488  0.18637  1.0000
  C   C67       1.0  0.51271  0.03451  0.12827  1.0000
  N   N9        1.0  0.50020  0.00949  0.09168  1.0000
  C   C68       1.0  0.48770  0.98450  0.12826  1.0000
  N   N10       1.0  0.47284  0.95477  0.11128  1.0000
  C   C69       1.0  0.46846  0.94601  0.05362  1.0000
  N   N11       1.0  0.47785  0.96480  0.00501  1.0000
  C   C70       1.0  0.46844  0.94597  0.95648  1.0000
  C   C71       1.0  0.45350  0.91609  0.97532  1.0000
  C   C72       1.0  0.45350  0.91609  0.03488  1.0000
  N   N12       1.0  0.50009  0.00927  0.91843  1.0000
  C   C73       1.0  0.48759  0.98428  0.88195  1.0000
  N   N13       1.0  0.47278  0.95465  0.89887  1.0000
  C   C74       1.0  0.49242  0.99392  0.82382  1.0000
  C   C75       1.0  0.50775  0.02458  0.82377  1.0000
  C   C76       1.0  0.51258  0.03426  0.88186  1.0000
  C   C77       1.0  0.44021  0.88950  0.06725  1.0000
  C   C78       1.0  0.42653  0.86215  0.03628  1.0000
  C   C79       1.0  0.42652  0.86213  0.97451  1.0000
  C   C80       1.0  0.44019  0.88947  0.94319  1.0000
  C   C81       1.0  0.51606  0.04120  0.77206  1.0000
  C   C82       1.0  0.50806  0.02521  0.71892  1.0000
  C   C83       1.0  0.49216  0.99341  0.71901  1.0000
  C   C84       1.0  0.48413  0.97735  0.77218  1.0000
  N   N14       1.0  0.52244  0.05398  0.00513  1.0000
  C   C85       1.0  0.53182  0.07274  0.95653  1.0000
  N   N15       1.0  0.52743  0.06394  0.89882  1.0000
  C   C86       1.0  0.54679  0.10267  0.97523  1.0000
  C   C87       1.0  0.54680  0.10270  0.03485  1.0000
  C   C88       1.0  0.53186  0.07282  0.05369  1.0000
  C   C89       1.0  0.56012  0.12934  0.06700  1.0000
  C   C90       1.0  0.57380  0.15669  0.03571  1.0000
  C   C91       1.0  0.57377  0.15664  0.97389  1.0000
  C   C92       1.0  0.56007  0.12924  0.94284  1.0000
  N   N16       1.0  0.52753  0.06416  0.11138  1.0000
  H   H17       1.0  0.52785  0.06479  0.23743  1.0000
  H   H18       1.0  0.47257  0.95424  0.23743  1.0000
  H   H19       1.0  0.44038  0.88985  0.11253  1.0000
  H   H20       1.0  0.44034  0.88978  0.89793  1.0000
  H   H21       1.0  0.52770  0.06449  0.77264  1.0000
  H   H22       1.0  0.47248  0.95405  0.77287  1.0000
  H   H23       1.0  0.55997  0.12904  0.11229  1.0000
  H   H24       1.0  0.55989  0.12888  0.89754  1.0000
  C   C93       1.0  0.58749  0.18408  0.06597  1.0000
  C   C94       1.0  0.60113  0.21136  0.03509  1.0000
  C   C95       1.0  0.60111  0.21132  0.97394  1.0000
  C   C96       1.0  0.58745  0.18399  0.94336  1.0000
  C   C97       1.0  0.51597  0.04103  0.34448  1.0000
  C   C98       1.0  0.50805  0.02520  0.39755  1.0000
  C   C99       1.0  0.49232  0.99373  0.39755  1.0000
  C   C100      1.0  0.48443  0.97795  0.34448  1.0000
  C   C101      1.0  0.41284  0.83477  0.06681  1.0000
  C   C102      1.0  0.39919  0.80747  0.03623  1.0000
  C   C103      1.0  0.39919  0.80747  0.97510  1.0000
  C   C104      1.0  0.41283  0.83476  0.94428  1.0000
  C   C105      1.0  0.51589  0.04087  0.66568  1.0000
  C   C106      1.0  0.50801  0.02512  0.61272  1.0000
  C   C107      1.0  0.49230  0.99369  0.61277  1.0000
  C   C108      1.0  0.48438  0.97785  0.66584  1.0000
  H   H25       1.0  0.58753  0.18416  0.11124  1.0000
  O   O21       1.0  0.61446  0.23802  0.06468  1.0000
  O   O22       1.0  0.61442  0.23794  0.94406  1.0000
  H   H26       1.0  0.58747  0.18403  0.89804  1.0000
  H   H27       1.0  0.52762  0.06434  0.34457  1.0000
  O   O23       1.0  0.51569  0.04047  0.44932  1.0000
  O   O24       1.0  0.48465  0.97839  0.44934  1.0000
  H   H28       1.0  0.47277  0.95464  0.34464  1.0000
  H   H29       1.0  0.41281  0.83471  0.11205  1.0000
  O   O25       1.0  0.38587  0.78083  0.06608  1.0000
  O   O26       1.0  0.38587  0.78084  0.94558  1.0000
  H   H30       1.0  0.41280  0.83469  0.89903  1.0000
  H   H31       1.0  0.52752  0.06414  0.66550  1.0000
  O   O27       1.0  0.51566  0.04042  0.56091  1.0000
  O   O28       1.0  0.48467  0.97843  0.56108  1.0000
  H   H32       1.0  0.47274  0.95456  0.66577  1.0000
  Ni  Ni2       1.0  0.50014  0.00938  0.00507  1.0000
  C   C109      1.0  0.51899  0.49476  0.23810  1.0000
  C   C110      1.0  0.51096  0.50280  0.29127  1.0000
  C   C111      1.0  0.49505  0.51871  0.29126  1.0000
  C   C112      1.0  0.48703  0.52673  0.23809  1.0000
  C   C113      1.0  0.49534  0.51841  0.18641  1.0000
  C   C114      1.0  0.51069  0.50307  0.18641  1.0000
  C   C115      1.0  0.51551  0.49825  0.12831  1.0000
  N   N17       1.0  0.50299  0.51077  0.09172  1.0000
  C   C116      1.0  0.49050  0.52326  0.12830  1.0000
  N   N18       1.0  0.47563  0.53813  0.11131  1.0000
  C   C117      1.0  0.47125  0.54251  0.05365  1.0000
  N   N19       1.0  0.48065  0.53311  0.00505  1.0000
  C   C118      1.0  0.47124  0.54252  0.95651  1.0000
  C   C119      1.0  0.45629  0.55747  0.97535  1.0000
  C   C120      1.0  0.45629  0.55747  0.03492  1.0000
  N   N20       1.0  0.50288  0.51087  0.91847  1.0000
  C   C121      1.0  0.49039  0.52337  0.88199  1.0000
  N   N21       1.0  0.47557  0.53818  0.89891  1.0000
  C   C122      1.0  0.49521  0.51855  0.82386  1.0000
  C   C123      1.0  0.51054  0.50322  0.82381  1.0000
  C   C124      1.0  0.51538  0.49838  0.88189  1.0000
  C   C125      1.0  0.44300  0.57076  0.06729  1.0000
  C   C126      1.0  0.42932  0.58444  0.03631  1.0000
  C   C127      1.0  0.42932  0.58445  0.97454  1.0000
  C   C128      1.0  0.44298  0.57078  0.94322  1.0000
  C   C129      1.0  0.51885  0.49491  0.77210  1.0000
  C   C130      1.0  0.51085  0.50291  0.71895  1.0000
  C   C131      1.0  0.49495  0.51880  0.71905  1.0000
  C   C132      1.0  0.48692  0.52684  0.77221  1.0000
  N   N22       1.0  0.52524  0.48852  0.00516  1.0000
  C   C133      1.0  0.53462  0.47914  0.95657  1.0000
  N   N23       1.0  0.53022  0.48354  0.89886  1.0000
  C   C134      1.0  0.54958  0.46417  0.97527  1.0000
  C   C135      1.0  0.54960  0.46416  0.03489  1.0000
  C   C136      1.0  0.53466  0.47910  0.05373  1.0000
  C   C137      1.0  0.56292  0.45084  0.06704  1.0000
  C   C138      1.0  0.57659  0.43716  0.03575  1.0000
  C   C139      1.0  0.57657  0.43719  0.97393  1.0000
  C   C140      1.0  0.56287  0.45089  0.94288  1.0000
  N   N24       1.0  0.53033  0.48343  0.11142  1.0000
  H   H33       1.0  0.53064  0.48311  0.23746  1.0000
  H   H34       1.0  0.47537  0.53839  0.23746  1.0000
  H   H35       1.0  0.44317  0.57059  0.11256  1.0000
  H   H36       1.0  0.44314  0.57062  0.89797  1.0000
  H   H37       1.0  0.53049  0.48326  0.77268  1.0000
  H   H38       1.0  0.47528  0.53848  0.77291  1.0000
  H   H39       1.0  0.56277  0.45098  0.11233  1.0000
  H   H40       1.0  0.56269  0.45107  0.89758  1.0000
  C   C141      1.0  0.59029  0.42347  0.06601  1.0000
  C   C142      1.0  0.60393  0.40982  0.03513  1.0000
  C   C143      1.0  0.60391  0.40984  0.97398  1.0000
  C   C144      1.0  0.59024  0.42351  0.94340  1.0000
  C   C145      1.0  0.51877  0.49499  0.34451  1.0000
  C   C146      1.0  0.51085  0.50291  0.39758  1.0000
  C   C147      1.0  0.49512  0.51864  0.39759  1.0000
  C   C148      1.0  0.48722  0.52654  0.34452  1.0000
  C   C149      1.0  0.41564  0.59813  0.06684  1.0000
  C   C150      1.0  0.40199  0.61178  0.03626  1.0000
  C   C151      1.0  0.40199  0.61178  0.97513  1.0000
  C   C152      1.0  0.41563  0.59813  0.94431  1.0000
  C   C153      1.0  0.51868  0.49507  0.66572  1.0000
  C   C154      1.0  0.51081  0.50295  0.61276  1.0000
  C   C155      1.0  0.49509  0.51867  0.61281  1.0000
  C   C156      1.0  0.48717  0.52659  0.66588  1.0000
  H   H41       1.0  0.59033  0.42342  0.11128  1.0000
  O   O29       1.0  0.61726  0.39649  0.06473  1.0000
  O   O30       1.0  0.61722  0.39653  0.94410  1.0000
  H   H42       1.0  0.59026  0.42349  0.89808  1.0000
  H   H43       1.0  0.53042  0.48334  0.34461  1.0000
  O   O31       1.0  0.51848  0.49527  0.44936  1.0000
  O   O32       1.0  0.48744  0.52632  0.44937  1.0000
  H   H44       1.0  0.47557  0.53819  0.34468  1.0000
  H   H45       1.0  0.41560  0.59816  0.11208  1.0000
  O   O33       1.0  0.38867  0.62510  0.06611  1.0000
  O   O34       1.0  0.38867  0.62510  0.94562  1.0000
  H   H46       1.0  0.41560  0.59817  0.89906  1.0000
  H   H47       1.0  0.53032  0.48344  0.66554  1.0000
  O   O35       1.0  0.51846  0.49530  0.56095  1.0000
  O   O36       1.0  0.48746  0.52629  0.56112  1.0000
  H   H48       1.0  0.47553  0.53823  0.66581  1.0000
  Ni  Ni3       1.0  0.50294  0.51082  0.00511  1.0000
  Cu  Cu1       1.0  0.00158  0.50802  0.50517  1.0000
  Cu  Cu2       1.0  0.50017  0.00943  0.50515  1.0000
  Cu  Cu3       1.0  0.50296  0.51079  0.50519  1.0000
  Zn  Zn1       1.0  0.25887  0.63727  0.00598  1.0000
  Zn  Zn2       1.0  0.62941  0.26672  0.00421  1.0000
  Zn  Zn3       1.0  0.37370  0.63887  0.00599  1.0000
  Zn  Zn4       1.0  0.74424  0.37995  0.00422  1.0000
  Zn  Zn5       1.0  0.37210  0.75210  0.00597  1.0000
  Zn  Zn6       1.0  0.63100  0.38154  0.00423  1.0000
