data_image0
_chemical_formula_structural       FeC6O6FeC6O6FeC6O6FeC6O6C6HO2HO2CuC6HO2HO2Cu3C6HO2HO2C6HO2HO2
_chemical_formula_sum              "Fe4 C48 O40 H8 Cu4"
_cell_length_a       12.8297
_cell_length_b       12.928
_cell_length_c       29.8391
_cell_angle_alpha    90
_cell_angle_beta     90
_cell_angle_gamma    90

_space_group_name_H-M_alt    "P 1"
_space_group_IT_number       1

loop_
  _space_group_symop_operation_xyz
  'x, y, z'

loop_
  _atom_site_type_symbol
  _atom_site_label
  _atom_site_symmetry_multiplicity
  _atom_site_fract_x
  _atom_site_fract_y
  _atom_site_fract_z
  _atom_site_occupancy
  Fe  Fe1       1.0  0.00010  0.75000  0.06253  1.0000
  C   C1        1.0  0.55456  0.75000  0.35269  1.0000
  C   C2        1.0  0.60912  0.75000  0.31206  1.0000
  C   C3        1.0  0.55456  0.75000  0.27143  1.0000
  C   C4        1.0  0.44544  0.75000  0.27143  1.0000
  C   C5        1.0  0.39088  0.75000  0.31206  1.0000
  C   C6        1.0  0.44544  0.75000  0.35269  1.0000
  O   O1        1.0  0.60366  0.75000  0.38926  1.0000
  O   O2        1.0  0.70733  0.75000  0.31206  1.0000
  O   O3        1.0  0.60367  0.75000  0.23486  1.0000
  O   O4        1.0  0.39634  0.75000  0.23486  1.0000
  O   O5        1.0  0.29267  0.75000  0.31206  1.0000
  O   O6        1.0  0.39634  0.75000  0.38926  1.0000
  Fe  Fe2       1.0  0.50000  0.25000  0.56253  1.0000
  C   C7        1.0  0.05466  0.25000  0.85269  1.0000
  C   C8        1.0  0.10922  0.25000  0.81206  1.0000
  C   C9        1.0  0.05466  0.25000  0.77143  1.0000
  C   C10       1.0  0.94554  0.25000  0.77143  1.0000
  C   C11       1.0  0.89098  0.25000  0.81206  1.0000
  C   C12       1.0  0.94554  0.25000  0.85269  1.0000
  O   O7        1.0  0.10376  0.25000  0.88926  1.0000
  O   O8        1.0  0.20743  0.25000  0.81206  1.0000
  O   O9        1.0  0.10377  0.25000  0.73486  1.0000
  O   O10       1.0  0.89644  0.25000  0.73486  1.0000
  O   O11       1.0  0.79277  0.25000  0.81206  1.0000
  O   O12       1.0  0.89644  0.25000  0.88926  1.0000
  Fe  Fe3       1.0  0.00010  0.25000  0.93747  1.0000
  C   C13       1.0  0.05466  0.75000  0.14731  1.0000
  C   C14       1.0  0.10922  0.75000  0.18794  1.0000
  C   C15       1.0  0.05466  0.75000  0.22857  1.0000
  C   C16       1.0  0.94554  0.75000  0.22857  1.0000
  C   C17       1.0  0.89098  0.75000  0.18794  1.0000
  C   C18       1.0  0.94554  0.75000  0.14731  1.0000
  O   O13       1.0  0.10376  0.75000  0.11074  1.0000
  O   O14       1.0  0.20743  0.75000  0.18794  1.0000
  O   O15       1.0  0.10377  0.75000  0.26514  1.0000
  O   O16       1.0  0.89644  0.75000  0.26514  1.0000
  O   O17       1.0  0.79277  0.75000  0.18794  1.0000
  O   O18       1.0  0.89644  0.75000  0.11074  1.0000
  Fe  Fe4       1.0  0.50000  0.75000  0.43747  1.0000
  C   C19       1.0  0.55456  0.25000  0.64731  1.0000
  C   C20       1.0  0.60912  0.25000  0.68794  1.0000
  C   C21       1.0  0.55456  0.25000  0.72857  1.0000
  C   C22       1.0  0.44544  0.25000  0.72857  1.0000
  C   C23       1.0  0.39088  0.25000  0.68794  1.0000
  C   C24       1.0  0.44544  0.25000  0.64731  1.0000
  O   O19       1.0  0.60366  0.25000  0.61074  1.0000
  O   O20       1.0  0.70733  0.25000  0.68794  1.0000
  O   O21       1.0  0.60367  0.25000  0.76514  1.0000
  O   O22       1.0  0.39634  0.25000  0.76514  1.0000
  O   O23       1.0  0.29267  0.25000  0.68794  1.0000
  O   O24       1.0  0.39634  0.25000  0.61074  1.0000
  C   C25       1.0  0.91100  0.46874  0.02346  1.0000
  C   C26       1.0  0.95555  0.40315  0.99141  1.0000
  C   C27       1.0  0.04465  0.43441  0.96795  1.0000
  C   C28       1.0  0.08920  0.53126  0.97654  1.0000
  C   C29       1.0  0.04465  0.59685  0.00859  1.0000
  C   C30       1.0  0.95555  0.56559  0.03205  1.0000
  H   H1        1.0  0.84418  0.44529  0.04105  1.0000
  O   O25       1.0  0.91546  0.31598  0.98369  1.0000
  O   O26       1.0  0.08474  0.37538  0.93911  1.0000
  H   H2        1.0  0.15602  0.55471  0.95895  1.0000
  O   O27       1.0  0.08474  0.68402  0.01631  1.0000
  O   O28       1.0  0.91546  0.62462  0.06089  1.0000
  Cu  Cu1       1.0  0.75010  0.75000  0.25000  1.0000
  C   C31       1.0  0.41090  0.46874  0.47654  1.0000
  C   C32       1.0  0.45545  0.56559  0.46795  1.0000
  C   C33       1.0  0.54455  0.59685  0.49141  1.0000
  C   C34       1.0  0.58910  0.53126  0.52346  1.0000
  C   C35       1.0  0.54455  0.43441  0.53205  1.0000
  C   C36       1.0  0.45545  0.40315  0.50859  1.0000
  H   H3        1.0  0.34408  0.44529  0.45895  1.0000
  O   O29       1.0  0.41536  0.62462  0.43911  1.0000
  O   O30       1.0  0.58464  0.68402  0.48369  1.0000
  H   H4        1.0  0.65592  0.55471  0.54105  1.0000
  O   O31       1.0  0.58464  0.37538  0.56089  1.0000
  O   O32       1.0  0.41536  0.31598  0.51631  1.0000
  Cu  Cu2       1.0  0.75010  0.25000  0.75000  1.0000
  Cu  Cu3       1.0  0.25000  0.25000  0.75000  1.0000
  Cu  Cu4       1.0  0.25010  0.75000  0.25000  1.0000
  C   C37       1.0  0.41090  0.96874  0.52346  1.0000
  C   C38       1.0  0.45545  0.06559  0.53205  1.0000
  C   C39       1.0  0.54455  0.09685  0.50859  1.0000
  C   C40       1.0  0.58910  0.03126  0.47654  1.0000
  C   C41       1.0  0.54455  0.93441  0.46795  1.0000
  C   C42       1.0  0.45545  0.90315  0.49141  1.0000
  H   H5        1.0  0.34408  0.94529  0.54105  1.0000
  O   O33       1.0  0.41536  0.12462  0.56089  1.0000
  O   O34       1.0  0.58464  0.18402  0.51631  1.0000
  H   H6        1.0  0.65592  0.05471  0.45895  1.0000
  O   O35       1.0  0.58464  0.87538  0.43911  1.0000
  O   O36       1.0  0.41536  0.81598  0.48369  1.0000
  C   C43       1.0  0.91100  0.96874  0.97654  1.0000
  C   C44       1.0  0.95555  0.06559  0.96795  1.0000
  C   C45       1.0  0.04465  0.09685  0.99141  1.0000
  C   C46       1.0  0.08920  0.03126  0.02346  1.0000
  C   C47       1.0  0.04465  0.93441  0.03205  1.0000
  C   C48       1.0  0.95555  0.90315  0.00859  1.0000
  H   H7        1.0  0.84418  0.94529  0.95895  1.0000
  O   O37       1.0  0.91546  0.12462  0.93911  1.0000
  O   O38       1.0  0.08474  0.18402  0.98369  1.0000
  H   H8        1.0  0.15602  0.05471  0.04105  1.0000
  O   O39       1.0  0.08474  0.87538  0.06089  1.0000
  O   O40       1.0  0.91546  0.81598  0.01631  1.0000
