data_image0
_chemical_formula_structural       C6O6C6O6C6O6C6O6C6O6C6O6C6O6C6O6Cu8Zn4
_chemical_formula_sum              "C48 O48 Cu8 Zn4"
_cell_length_a       12.8303
_cell_length_b       12.8292
_cell_length_c       44.4436
_cell_angle_alpha    89.9995
_cell_angle_beta     90
_cell_angle_gamma    90

_space_group_name_H-M_alt    "P 1"
_space_group_IT_number       1

loop_
  _space_group_symop_operation_xyz
  'x, y, z'

loop_
  _atom_site_type_symbol
  _atom_site_label
  _atom_site_symmetry_multiplicity
  _atom_site_fract_x
  _atom_site_fract_y
  _atom_site_fract_z
  _atom_site_occupancy
  C   C1        1.0  0.00010  0.69544  0.06895  1.0000
  C   C2        1.0  0.00010  0.64088  0.04167  1.0000
  C   C3        1.0  0.00010  0.69544  0.01439  1.0000
  C   C4        1.0  0.00010  0.80456  0.01439  1.0000
  C   C5        1.0  0.00010  0.85912  0.04167  1.0000
  C   C6        1.0  0.00010  0.80456  0.06895  1.0000
  O   O1        1.0  0.00010  0.64633  0.09350  1.0000
  O   O2        1.0  0.00010  0.54266  0.04167  1.0000
  O   O3        1.0  0.00010  0.64633  0.98983  1.0000
  O   O4        1.0  0.00010  0.85367  0.98983  1.0000
  O   O5        1.0  0.00010  0.95734  0.04167  1.0000
  O   O6        1.0  0.00010  0.85367  0.09350  1.0000
  C   C7        1.0  0.44545  0.75001  0.26439  1.0000
  C   C8        1.0  0.55457  0.75001  0.26439  1.0000
  C   C9        1.0  0.60913  0.75001  0.29167  1.0000
  C   C10       1.0  0.55457  0.75001  0.31895  1.0000
  C   C11       1.0  0.44545  0.75001  0.31895  1.0000
  C   C12       1.0  0.39089  0.75001  0.29167  1.0000
  O   O7        1.0  0.39635  0.75001  0.23983  1.0000
  O   O8        1.0  0.60367  0.75001  0.23983  1.0000
  O   O9        1.0  0.70733  0.75001  0.29167  1.0000
  O   O10       1.0  0.60367  0.75001  0.34350  1.0000
  O   O11       1.0  0.39635  0.75001  0.34350  1.0000
  O   O12       1.0  0.29269  0.75001  0.29167  1.0000
  C   C13       1.0  0.50000  0.19544  0.56895  1.0000
  C   C14       1.0  0.50000  0.14088  0.54167  1.0000
  C   C15       1.0  0.50000  0.19544  0.51439  1.0000
  C   C16       1.0  0.50000  0.30456  0.51439  1.0000
  C   C17       1.0  0.50000  0.35912  0.54167  1.0000
  C   C18       1.0  0.50000  0.30456  0.56895  1.0000
  O   O13       1.0  0.50000  0.14633  0.59350  1.0000
  O   O14       1.0  0.50000  0.04266  0.54167  1.0000
  O   O15       1.0  0.50000  0.14633  0.48983  1.0000
  O   O16       1.0  0.50000  0.35367  0.48983  1.0000
  O   O17       1.0  0.50000  0.45734  0.54167  1.0000
  O   O18       1.0  0.50000  0.35367  0.59350  1.0000
  C   C19       1.0  0.94554  0.25001  0.76439  1.0000
  C   C20       1.0  0.05466  0.25001  0.76439  1.0000
  C   C21       1.0  0.10922  0.25001  0.79167  1.0000
  C   C22       1.0  0.05466  0.25001  0.81895  1.0000
  C   C23       1.0  0.94554  0.25001  0.81895  1.0000
  C   C24       1.0  0.89099  0.25001  0.79167  1.0000
  O   O19       1.0  0.89644  0.25001  0.73983  1.0000
  O   O20       1.0  0.10376  0.25001  0.73983  1.0000
  O   O21       1.0  0.20742  0.25001  0.79167  1.0000
  O   O22       1.0  0.10376  0.25001  0.84350  1.0000
  O   O23       1.0  0.89644  0.25001  0.84350  1.0000
  O   O24       1.0  0.79278  0.25001  0.79167  1.0000
  C   C25       1.0  0.00010  0.30456  0.93105  1.0000
  C   C26       1.0  0.00010  0.35912  0.95833  1.0000
  C   C27       1.0  0.00010  0.30456  0.98561  1.0000
  C   C28       1.0  0.00010  0.19544  0.98561  1.0000
  C   C29       1.0  0.00010  0.14088  0.95833  1.0000
  C   C30       1.0  0.00010  0.19544  0.93105  1.0000
  O   O25       1.0  0.00010  0.35367  0.90650  1.0000
  O   O26       1.0  0.00010  0.45734  0.95833  1.0000
  O   O27       1.0  0.00010  0.35367  0.01017  1.0000
  O   O28       1.0  0.00010  0.14633  0.01017  1.0000
  O   O29       1.0  0.00010  0.04266  0.95833  1.0000
  O   O30       1.0  0.00010  0.14633  0.90650  1.0000
  C   C31       1.0  0.94554  0.74999  0.23561  1.0000
  C   C32       1.0  0.05466  0.74999  0.23561  1.0000
  C   C33       1.0  0.10922  0.74999  0.20833  1.0000
  C   C34       1.0  0.05466  0.74999  0.18105  1.0000
  C   C35       1.0  0.94554  0.74999  0.18105  1.0000
  C   C36       1.0  0.89099  0.74999  0.20833  1.0000
  O   O31       1.0  0.89644  0.74999  0.26017  1.0000
  O   O32       1.0  0.10376  0.74999  0.26017  1.0000
  O   O33       1.0  0.20742  0.74999  0.20833  1.0000
  O   O34       1.0  0.10376  0.74999  0.15650  1.0000
  O   O35       1.0  0.89644  0.74999  0.15650  1.0000
  O   O36       1.0  0.79278  0.74999  0.20833  1.0000
  C   C37       1.0  0.50000  0.80456  0.43105  1.0000
  C   C38       1.0  0.50000  0.85912  0.45833  1.0000
  C   C39       1.0  0.50000  0.80456  0.48561  1.0000
  C   C40       1.0  0.50000  0.69544  0.48561  1.0000
  C   C41       1.0  0.50000  0.64088  0.45833  1.0000
  C   C42       1.0  0.50000  0.69544  0.43105  1.0000
  O   O37       1.0  0.50000  0.85367  0.40650  1.0000
  O   O38       1.0  0.50000  0.95734  0.45833  1.0000
  O   O39       1.0  0.50000  0.85367  0.51017  1.0000
  O   O40       1.0  0.50000  0.64633  0.51017  1.0000
  O   O41       1.0  0.50000  0.54266  0.45833  1.0000
  O   O42       1.0  0.50000  0.64633  0.40650  1.0000
  C   C43       1.0  0.44545  0.24999  0.73561  1.0000
  C   C44       1.0  0.55457  0.24999  0.73561  1.0000
  C   C45       1.0  0.60913  0.24999  0.70833  1.0000
  C   C46       1.0  0.55457  0.24999  0.68105  1.0000
  C   C47       1.0  0.44545  0.24999  0.68105  1.0000
  C   C48       1.0  0.39089  0.24999  0.70833  1.0000
  O   O43       1.0  0.39635  0.24999  0.76017  1.0000
  O   O44       1.0  0.60367  0.24999  0.76017  1.0000
  O   O45       1.0  0.70733  0.24999  0.70833  1.0000
  O   O46       1.0  0.60367  0.24999  0.65650  1.0000
  O   O47       1.0  0.39635  0.24999  0.65650  1.0000
  O   O48       1.0  0.29269  0.24999  0.70833  1.0000
  Cu  Cu1       1.0  0.00010  0.50000  0.99990  1.0000
  Cu  Cu2       1.0  0.75010  0.75000  0.25000  1.0000
  Cu  Cu3       1.0  0.50000  0.50000  0.50000  1.0000
  Cu  Cu4       1.0  0.75010  0.25000  0.75000  1.0000
  Cu  Cu5       1.0  0.25001  0.25000  0.75000  1.0000
  Cu  Cu6       1.0  0.25010  0.75000  0.25000  1.0000
  Cu  Cu7       1.0  0.50000  0.00010  0.50000  1.0000
  Cu  Cu8       1.0  0.00010  0.99990  0.99990  1.0000
  Zn  Zn1       1.0  0.00010  0.75000  0.12500  1.0000
  Zn  Zn2       1.0  0.50000  0.75000  0.37500  1.0000
  Zn  Zn3       1.0  0.50001  0.25000  0.62500  1.0000
  Zn  Zn4       1.0  0.00010  0.25000  0.87500  1.0000
