data_image0
_chemical_formula_structural       FeC6O6FeC6O6FeC6O6FeC6O6C6HO2HO2CuC6HO2HO2Cu3C6HO2HO2C6HO2HO2C6O2HO2HCuC6O2HO2HCuC6O2HO2HCuC6O2HO2HCu
_chemical_formula_sum              "Fe4 C72 O56 H16 Cu8"
_cell_length_a       12.8299
_cell_length_b       12.928
_cell_length_c       63.2967
_cell_angle_alpha    90
_cell_angle_beta     90
_cell_angle_gamma    90

_space_group_name_H-M_alt    "P 1"
_space_group_IT_number       1

loop_
  _space_group_symop_operation_xyz
  'x, y, z'

loop_
  _atom_site_type_symbol
  _atom_site_label
  _atom_site_symmetry_multiplicity
  _atom_site_fract_x
  _atom_site_fract_y
  _atom_site_fract_z
  _atom_site_occupancy
  Fe  Fe1       1.0  0.00010  0.75000  0.02948  1.0000
  C   C1        1.0  0.55456  0.75000  0.29841  1.0000
  C   C2        1.0  0.60912  0.75000  0.27926  1.0000
  C   C3        1.0  0.55456  0.75000  0.26010  1.0000
  C   C4        1.0  0.44544  0.75000  0.26010  1.0000
  C   C5        1.0  0.39088  0.75000  0.27926  1.0000
  C   C6        1.0  0.44544  0.75000  0.29841  1.0000
  O   O1        1.0  0.60366  0.75000  0.31565  1.0000
  O   O2        1.0  0.70733  0.75000  0.27926  1.0000
  O   O3        1.0  0.60366  0.75000  0.24286  1.0000
  O   O4        1.0  0.39634  0.75000  0.24286  1.0000
  O   O5        1.0  0.29267  0.75000  0.27926  1.0000
  O   O6        1.0  0.39633  0.75000  0.31565  1.0000
  Fe  Fe2       1.0  0.50000  0.25000  0.52948  1.0000
  C   C7        1.0  0.05466  0.25000  0.79841  1.0000
  C   C8        1.0  0.10922  0.25000  0.77926  1.0000
  C   C9        1.0  0.05466  0.25000  0.76010  1.0000
  C   C10       1.0  0.94554  0.25000  0.76010  1.0000
  C   C11       1.0  0.89098  0.25000  0.77926  1.0000
  C   C12       1.0  0.94554  0.25000  0.79841  1.0000
  O   O7        1.0  0.10376  0.25000  0.81565  1.0000
  O   O8        1.0  0.20743  0.25000  0.77926  1.0000
  O   O9        1.0  0.10376  0.25000  0.74286  1.0000
  O   O10       1.0  0.89644  0.25000  0.74286  1.0000
  O   O11       1.0  0.79277  0.25000  0.77926  1.0000
  O   O12       1.0  0.89644  0.25000  0.81565  1.0000
  Fe  Fe3       1.0  0.00010  0.25000  0.97052  1.0000
  C   C13       1.0  0.05466  0.75000  0.20159  1.0000
  C   C14       1.0  0.10922  0.75000  0.22074  1.0000
  C   C15       1.0  0.05466  0.75000  0.23990  1.0000
  C   C16       1.0  0.94554  0.75000  0.23990  1.0000
  C   C17       1.0  0.89098  0.75000  0.22074  1.0000
  C   C18       1.0  0.94554  0.75000  0.20159  1.0000
  O   O13       1.0  0.10376  0.75000  0.18435  1.0000
  O   O14       1.0  0.20743  0.75000  0.22074  1.0000
  O   O15       1.0  0.10376  0.75000  0.25714  1.0000
  O   O16       1.0  0.89644  0.75000  0.25714  1.0000
  O   O17       1.0  0.79277  0.75000  0.22074  1.0000
  O   O18       1.0  0.89644  0.75000  0.18435  1.0000
  Fe  Fe4       1.0  0.50000  0.75000  0.47052  1.0000
  C   C19       1.0  0.55456  0.25000  0.70159  1.0000
  C   C20       1.0  0.60912  0.25000  0.72074  1.0000
  C   C21       1.0  0.55456  0.25000  0.73990  1.0000
  C   C22       1.0  0.44544  0.25000  0.73990  1.0000
  C   C23       1.0  0.39088  0.25000  0.72074  1.0000
  C   C24       1.0  0.44544  0.25000  0.70159  1.0000
  O   O19       1.0  0.60366  0.25000  0.68435  1.0000
  O   O20       1.0  0.70733  0.25000  0.72074  1.0000
  O   O21       1.0  0.60366  0.25000  0.75714  1.0000
  O   O22       1.0  0.39634  0.25000  0.75714  1.0000
  O   O23       1.0  0.29267  0.25000  0.72074  1.0000
  O   O24       1.0  0.39633  0.25000  0.68435  1.0000
  C   C25       1.0  0.91100  0.46874  0.01106  1.0000
  C   C26       1.0  0.95555  0.40315  0.99595  1.0000
  C   C27       1.0  0.04465  0.43441  0.98489  1.0000
  C   C28       1.0  0.08920  0.53126  0.98894  1.0000
  C   C29       1.0  0.04465  0.59685  0.00405  1.0000
  C   C30       1.0  0.95555  0.56559  0.01511  1.0000
  H   H1        1.0  0.84418  0.44529  0.01935  1.0000
  O   O25       1.0  0.91546  0.31599  0.99231  1.0000
  O   O26       1.0  0.08474  0.37538  0.97130  1.0000
  H   H2        1.0  0.15602  0.55471  0.98065  1.0000
  O   O27       1.0  0.08474  0.68401  0.00769  1.0000
  O   O28       1.0  0.91546  0.62462  0.02870  1.0000
  Cu  Cu1       1.0  0.75010  0.75000  0.25000  1.0000
  C   C31       1.0  0.41091  0.46874  0.48894  1.0000
  C   C32       1.0  0.45545  0.56559  0.48489  1.0000
  C   C33       1.0  0.54455  0.59685  0.49595  1.0000
  C   C34       1.0  0.58910  0.53126  0.51106  1.0000
  C   C35       1.0  0.54455  0.43441  0.51511  1.0000
  C   C36       1.0  0.45545  0.40315  0.50405  1.0000
  H   H3        1.0  0.34408  0.44529  0.48065  1.0000
  O   O29       1.0  0.41536  0.62462  0.47130  1.0000
  O   O30       1.0  0.58464  0.68401  0.49231  1.0000
  H   H4        1.0  0.65592  0.55471  0.51935  1.0000
  O   O31       1.0  0.58464  0.37538  0.52870  1.0000
  O   O32       1.0  0.41536  0.31599  0.50769  1.0000
  Cu  Cu2       1.0  0.75010  0.25000  0.75000  1.0000
  Cu  Cu3       1.0  0.25000  0.25000  0.75000  1.0000
  Cu  Cu4       1.0  0.25010  0.75000  0.25000  1.0000
  C   C37       1.0  0.41091  0.96874  0.51106  1.0000
  C   C38       1.0  0.45545  0.06559  0.51511  1.0000
  C   C39       1.0  0.54455  0.09685  0.50405  1.0000
  C   C40       1.0  0.58910  0.03126  0.48894  1.0000
  C   C41       1.0  0.54455  0.93441  0.48489  1.0000
  C   C42       1.0  0.45545  0.90315  0.49595  1.0000
  H   H5        1.0  0.34408  0.94529  0.51935  1.0000
  O   O33       1.0  0.41536  0.12462  0.52870  1.0000
  O   O34       1.0  0.58464  0.18401  0.50769  1.0000
  H   H6        1.0  0.65592  0.05471  0.48065  1.0000
  O   O35       1.0  0.58464  0.87538  0.47130  1.0000
  O   O36       1.0  0.41536  0.81599  0.49231  1.0000
  C   C43       1.0  0.91100  0.96874  0.98894  1.0000
  C   C44       1.0  0.95555  0.06559  0.98489  1.0000
  C   C45       1.0  0.04465  0.09685  0.99595  1.0000
  C   C46       1.0  0.08920  0.03126  0.01106  1.0000
  C   C47       1.0  0.04465  0.93441  0.01511  1.0000
  C   C48       1.0  0.95555  0.90315  0.00405  1.0000
  H   H7        1.0  0.84418  0.94529  0.98065  1.0000
  O   O37       1.0  0.91546  0.12462  0.97130  1.0000
  O   O38       1.0  0.08474  0.18401  0.99231  1.0000
  H   H8        1.0  0.15602  0.05471  0.01935  1.0000
  O   O39       1.0  0.08474  0.87538  0.02870  1.0000
  O   O40       1.0  0.91546  0.81599  0.00769  1.0000
  C   C49       1.0  0.94310  0.76798  0.07271  1.0000
  C   C50       1.0  0.05742  0.73192  0.07270  1.0000
  C   C51       1.0  0.11470  0.71385  0.09374  1.0000
  C   C52       1.0  0.05783  0.73179  0.11485  1.0000
  C   C53       1.0  0.94316  0.76796  0.11488  1.0000
  C   C54       1.0  0.88609  0.78596  0.09379  1.0000
  O   O41       1.0  0.88689  0.78571  0.05207  1.0000
  O   O42       1.0  0.11331  0.71429  0.05203  1.0000
  H   H9        1.0  0.19932  0.68716  0.09370  1.0000
  O   O43       1.0  0.11444  0.71394  0.13548  1.0000
  O   O44       1.0  0.88672  0.78576  0.13555  1.0000
  H   H10       1.0  0.80146  0.81266  0.09381  1.0000
  Cu  Cu5       1.0  0.00010  0.74976  0.16024  1.0000
  C   C55       1.0  0.44300  0.76798  0.42729  1.0000
  C   C56       1.0  0.55732  0.73192  0.42730  1.0000
  C   C57       1.0  0.61460  0.71385  0.40626  1.0000
  C   C58       1.0  0.55773  0.73179  0.38515  1.0000
  C   C59       1.0  0.44305  0.76796  0.38512  1.0000
  C   C60       1.0  0.38599  0.78596  0.40621  1.0000
  O   O45       1.0  0.38679  0.78571  0.44793  1.0000
  O   O46       1.0  0.61322  0.71429  0.44797  1.0000
  H   H11       1.0  0.69922  0.68716  0.40630  1.0000
  O   O47       1.0  0.61433  0.71394  0.36452  1.0000
  O   O48       1.0  0.38662  0.78576  0.36445  1.0000
  H   H12       1.0  0.30136  0.81266  0.40619  1.0000
  Cu  Cu6       1.0  0.50075  0.74976  0.33976  1.0000
  C   C61       1.0  0.44300  0.26798  0.57271  1.0000
  C   C62       1.0  0.55732  0.23192  0.57270  1.0000
  C   C63       1.0  0.61460  0.21385  0.59374  1.0000
  C   C64       1.0  0.55773  0.23179  0.61485  1.0000
  C   C65       1.0  0.44306  0.26796  0.61488  1.0000
  C   C66       1.0  0.38599  0.28596  0.59379  1.0000
  O   O49       1.0  0.38679  0.28571  0.55207  1.0000
  O   O50       1.0  0.61322  0.21429  0.55203  1.0000
  H   H13       1.0  0.69922  0.18716  0.59370  1.0000
  O   O51       1.0  0.61433  0.21394  0.63548  1.0000
  O   O52       1.0  0.38662  0.28576  0.63555  1.0000
  H   H14       1.0  0.30136  0.31266  0.59381  1.0000
  Cu  Cu7       1.0  0.50075  0.24976  0.66024  1.0000
  C   C67       1.0  0.94310  0.26798  0.92729  1.0000
  C   C68       1.0  0.05742  0.23192  0.92730  1.0000
  C   C69       1.0  0.11470  0.21385  0.90626  1.0000
  C   C70       1.0  0.05783  0.23179  0.88515  1.0000
  C   C71       1.0  0.94316  0.26796  0.88512  1.0000
  C   C72       1.0  0.88609  0.28596  0.90621  1.0000
  O   O53       1.0  0.88689  0.28571  0.94793  1.0000
  O   O54       1.0  0.11331  0.21429  0.94797  1.0000
  H   H15       1.0  0.19932  0.18716  0.90630  1.0000
  O   O55       1.0  0.11444  0.21394  0.86452  1.0000
  O   O56       1.0  0.88672  0.28576  0.86445  1.0000
  H   H16       1.0  0.80146  0.31266  0.90619  1.0000
  Cu  Cu8       1.0  0.00010  0.24976  0.83976  1.0000
